*HEADING
(b) HGO anisotropic skin + pretension - 3D quarter model (C3D8R)
Fibers +-gamma about x-axis; x=0,y=0 symmetry planes
Units: mm, N, MPa, tonne, s
*NODE
1, 0.00000, 0.00000, 0.00000
2, 0.12500, 0.00000, 0.00000
3, 0.25000, 0.00000, 0.00000
4, 0.37500, 0.00000, 0.00000
5, 0.50000, 0.00000, 0.00000
6, 0.62500, 0.00000, 0.00000
7, 0.75000, 0.00000, 0.00000
8, 0.87500, 0.00000, 0.00000
9, 1.00000, 0.00000, 0.00000
10, 1.12500, 0.00000, 0.00000
11, 1.25000, 0.00000, 0.00000
12, 1.37500, 0.00000, 0.00000
13, 1.50000, 0.00000, 0.00000
101, 0.00000, 0.12500, 0.00000
102, 0.12500, 0.12500, 0.00000
103, 0.25000, 0.12500, 0.00000
104, 0.37500, 0.12500, 0.00000
105, 0.50000, 0.12500, 0.00000
106, 0.62500, 0.12500, 0.00000
107, 0.75000, 0.12500, 0.00000
** ... 1839 like lines cut
*ELEMENT, TYPE=C3D8R
1, 1,2,102,101, 10001,10002,10102,10101
2, 2,3,103,102, 10002,10003,10103,10102
3, 3,4,104,103, 10003,10004,10104,10103
4, 4,5,105,104, 10004,10005,10105,10104
5, 5,6,106,105, 10005,10006,10106,10105
6, 6,7,107,106, 10006,10007,10107,10106
7, 7,8,108,107, 10007,10008,10108,10107
8, 8,9,109,108, 10008,10009,10109,10108
9, 9,10,110,109, 10009,10010,10110,10109
10, 10,11,111,110, 10010,10011,10111,10110
11, 11,12,112,111, 10011,10012,10112,10111
12, 12,13,113,112, 10012,10013,10113,10112
101, 101,102,202,201, 10101,10102,10202,10201
102, 102,103,203,202, 10102,10103,10203,10202
103, 103,104,204,203, 10103,10104,10204,10203
104, 104,105,205,204, 10104,10105,10205,10204
105, 105,106,206,205, 10105,10106,10206,10205
106, 106,107,207,206, 10106,10107,10207,10206
107, 107,108,208,207, 10107,10108,10208,10207
108, 108,109,209,208, 10108,10109,10209,10208
** ... 1420 like lines cut
*ELSET, ELSET=SKIN, GENERATE
1, 91112, 1
*SURFACE, TYPE=ELEMENT, NAME=SKIN_SURF
SKIN,
*NSET, NSET=PBOT
1, 2, 3, 4, 5, 6, 7, 8
9, 10, 11, 12, 13, 101, 102, 103
104, 105, 106, 107, 108, 109, 110, 111
112, 113, 201, 202, 203, 204, 205, 206
207, 208, 209, 210, 211, 212, 213, 301
302, 303, 304, 305, 306, 307, 308, 309
310, 311, 312, 313, 401, 402, 403, 404
405, 406, 407, 408, 409, 410, 411, 412
413, 501, 502, 503, 504, 505, 506, 507
508, 509, 510, 511, 512, 513, 601, 602
603, 604, 605, 606, 607, 608, 609, 610
611, 612, 613, 701, 702, 703, 704, 705
706, 707, 708, 709, 710, 711, 712, 713
801, 802, 803, 804, 805, 806, 807, 808
809, 810, 811, 812, 813, 901, 902, 903
904, 905, 906, 907, 908, 909, 910, 911
912, 913, 1001, 1002, 1003, 1004, 1005, 1006
1007, 1008, 1009, 1010, 1011, 1012, 1013, 1101
1102, 1103, 1104, 1105, 1106, 1107, 1108, 1109
1110, 1111, 1112, 1113, 1201, 1202, 1203, 1204
1205, 1206, 1207, 1208, 1209, 1210, 1211, 1212
1213
*NSET, NSET=XSYM
1, 101, 201, 301, 401, 501, 601, 701
801, 901, 1001, 1101, 1201, 10001, 10101, 10201
10301, 10401, 10501, 10601, 10701, 10801, 10901, 11001
11101, 11201, 20001, 20101, 20201, 20301, 20401, 20501
20601, 20701, 20801, 20901, 21001, 21101, 21201, 30001
30101, 30201, 30301, 30401, 30501, 30601, 30701, 30801
30901, 31001, 31101, 31201, 40001, 40101, 40201, 40301
40401, 40501, 40601, 40701, 40801, 40901, 41001, 41101
41201, 50001, 50101, 50201, 50301, 50401, 50501, 50601
50701, 50801, 50901, 51001, 51101, 51201, 60001, 60101
60201, 60301, 60401, 60501, 60601, 60701, 60801, 60901
61001, 61101, 61201, 70001, 70101, 70201, 70301, 70401
70501, 70601, 70701, 70801, 70901, 71001, 71101, 71201
80001, 80101, 80201, 80301, 80401, 80501, 80601, 80701
80801, 80901, 81001, 81101, 81201, 90001, 90101, 90201
90301, 90401, 90501, 90601, 90701, 90801, 90901, 91001
91101, 91201, 100001, 100101, 100201, 100301, 100401, 100501
100601, 100701, 100801, 100901, 101001, 101101, 101201
*NSET, NSET=YSYM
1, 2, 3, 4, 5, 6, 7, 8
9, 10, 11, 12, 13, 10001, 10002, 10003
10004, 10005, 10006, 10007, 10008, 10009, 10010, 10011
10012, 10013, 20001, 20002, 20003, 20004, 20005, 20006
20007, 20008, 20009, 20010, 20011, 20012, 20013, 30001
30002, 30003, 30004, 30005, 30006, 30007, 30008, 30009
30010, 30011, 30012, 30013, 40001, 40002, 40003, 40004
40005, 40006, 40007, 40008, 40009, 40010, 40011, 40012
40013, 50001, 50002, 50003, 50004, 50005, 50006, 50007
50008, 50009, 50010, 50011, 50012, 50013, 60001, 60002
60003, 60004, 60005, 60006, 60007, 60008, 60009, 60010
60011, 60012, 60013, 70001, 70002, 70003, 70004, 70005
70006, 70007, 70008, 70009, 70010, 70011, 70012, 70013
80001, 80002, 80003, 80004, 80005, 80006, 80007, 80008
80009, 80010, 80011, 80012, 80013, 90001, 90002, 90003
90004, 90005, 90006, 90007, 90008, 90009, 90010, 90011
90012, 90013, 100001, 100002, 100003, 100004, 100005, 100006
100007, 100008, 100009, 100010, 100011, 100012, 100013
*NSET, NSET=XOUT
13, 113, 213, 313, 413, 513, 613, 713
813, 913, 1013, 1113, 1213, 10013, 10113, 10213
10313, 10413, 10513, 10613, 10713, 10813, 10913, 11013
11113, 11213, 20013, 20113, 20213, 20313, 20413, 20513
20613, 20713, 20813, 20913, 21013, 21113, 21213, 30013
30113, 30213, 30313, 30413, 30513, 30613, 30713, 30813
30913, 31013, 31113, 31213, 40013, 40113, 40213, 40313
40413, 40513, 40613, 40713, 40813, 40913, 41013, 41113
41213, 50013, 50113, 50213, 50313, 50413, 50513, 50613
50713, 50813, 50913, 51013, 51113, 51213, 60013, 60113
60213, 60313, 60413, 60513, 60613, 60713, 60813, 60913
61013, 61113, 61213, 70013, 70113, 70213, 70313, 70413
70513, 70613, 70713, 70813, 70913, 71013, 71113, 71213
80013, 80113, 80213, 80313, 80413, 80513, 80613, 80713
80813, 80913, 81013, 81113, 81213, 90013, 90113, 90213
90313, 90413, 90513, 90613, 90713, 90813, 90913, 91013
91113, 91213, 100013, 100113, 100213, 100313, 100413, 100513
100613, 100713, 100813, 100913, 101013, 101113, 101213
*NSET, NSET=YOUT
1201, 1202, 1203, 1204, 1205, 1206, 1207, 1208
1209, 1210, 1211, 1212, 1213, 11201, 11202, 11203
11204, 11205, 11206, 11207, 11208, 11209, 11210, 11211
11212, 11213, 21201, 21202, 21203, 21204, 21205, 21206
21207, 21208, 21209, 21210, 21211, 21212, 21213, 31201
31202, 31203, 31204, 31205, 31206, 31207, 31208, 31209
31210, 31211, 31212, 31213, 41201, 41202, 41203, 41204
41205, 41206, 41207, 41208, 41209, 41210, 41211, 41212
41213, 51201, 51202, 51203, 51204, 51205, 51206, 51207
51208, 51209, 51210, 51211, 51212, 51213, 61201, 61202
61203, 61204, 61205, 61206, 61207, 61208, 61209, 61210
61211, 61212, 61213, 71201, 71202, 71203, 71204, 71205
71206, 71207, 71208, 71209, 71210, 71211, 71212, 71213
81201, 81202, 81203, 81204, 81205, 81206, 81207, 81208
81209, 81210, 81211, 81212, 81213, 91201, 91202, 91203
91204, 91205, 91206, 91207, 91208, 91209, 91210, 91211
91212, 91213, 101201, 101202, 101203, 101204, 101205, 101206
101207, 101208, 101209, 101210, 101211, 101212, 101213
*NODE
9999, 0.0, 0.0, 1.22000
*NSET, NSET=NREF
9999,
*SURFACE, TYPE=REVOLUTION, NAME=NEEDLE, FILLET RADIUS=0.01
0.,0.,0., 0.,0.,1.
START, 0.02, 1.22000
LINE,  0.15, 1.60000
LINE,  0.15, 3.00000
*RIGID BODY, ANALYTICAL SURFACE=NEEDLE, REF NODE=NREF
*MATERIAL, NAME=DERMIS_HGO
*DENSITY
1.1e-9,
*USER MATERIAL, CONSTANTS=8
0.02, 1.0, 0.5, 8.0, 0.2, 30.0, 1.6, 2.3
*DEPVAR, DELETE=1
4
1, DELFLAG, deletion flag
2, LAMMAX, max principal stretch
3, DAMAGE, damage variable
4, JVOL, relative volume
*SOLID SECTION, ELSET=SKIN, MATERIAL=DERMIS_HGO
*AMPLITUDE, NAME=PRE, DEFINITION=SMOOTH STEP, TIME=STEP TIME
0.0, 0.0, 0.005, 1.0
*AMPLITUDE, NAME=PUSH, DEFINITION=SMOOTH STEP, TIME=STEP TIME
0.0, 0.0, 0.010, 1.0
*SURFACE INTERACTION, NAME=IPROP
*FRICTION
0.1,
*STEP, NAME=PRETENSION
*DYNAMIC, EXPLICIT
, 0.005
*FIXED MASS SCALING, DT=5.0e-7, TYPE=BELOW MIN
*BOUNDARY
XSYM, 1, 1
YSYM, 2, 2
PBOT, 3, 3
NREF, 1, 6
*BOUNDARY, AMPLITUDE=PRE
XOUT, 1, 1, 0.15000
YOUT, 2, 2, 0.15000
*CONTACT
*CONTACT INCLUSIONS, ALL EXTERIOR
*CONTACT INCLUSIONS
NEEDLE, SKIN_SURF
*CONTACT PROPERTY ASSIGNMENT
 ,  , IPROP
*OUTPUT, FIELD, NUMBER INTERVAL=5
*ELEMENT OUTPUT, ELSET=SKIN
S, LE, SDV, STATUS
*NODE OUTPUT
U
*END STEP
*STEP, NAME=INSERTION
*DYNAMIC, EXPLICIT
, 0.010
*FIXED MASS SCALING, DT=5.0e-7, TYPE=BELOW MIN
*BOUNDARY, OP=NEW
XSYM, 1, 1
YSYM, 2, 2
PBOT, 3, 3
XOUT, 1, 1, 0.15000
YOUT, 2, 2, 0.15000
NREF, 1, 1
NREF, 2, 2
NREF, 4, 6
*BOUNDARY, AMPLITUDE=PUSH
NREF, 3, 3, -1.00000
*OUTPUT, FIELD, NUMBER INTERVAL=25
*ELEMENT OUTPUT, ELSET=SKIN
S, LE, SDV, STATUS
*NODE OUTPUT
U, V
*OUTPUT, HISTORY, TIME INTERVAL=1.0e-4
*NODE OUTPUT, NSET=NREF
U3, V3, RF3
*ENERGY OUTPUT
ALLIE, ALLKE, ALLSE, ALLWK
*END STEP
