*HEADING
Path-refined axisymmetric 3-layer skin penetration (stretch-based failure)
Units: mm, N, MPa, tonne, s
*NODE
1, 0.000000, 0.000000
2, 0.030000, 0.000000
3, 0.060000, 0.000000
4, 0.090000, 0.000000
5, 0.120000, 0.000000
6, 0.150000, 0.000000
7, 0.180000, 0.000000
8, 0.210000, 0.000000
9, 0.240000, 0.000000
10, 0.270000, 0.000000
11, 0.300000, 0.000000
12, 0.337500, 0.000000
13, 0.384375, 0.000000
14, 0.442969, 0.000000
15, 0.516211, 0.000000
16, 0.607764, 0.000000
17, 0.722205, 0.000000
18, 0.865256, 0.000000
19, 1.044070, 0.000000
20, 1.267587, 0.000000
** ... 440 like lines cut
*ELEMENT, TYPE=CAX4R
1, 1, 2, 102, 101
2, 2, 3, 103, 102
3, 3, 4, 104, 103
4, 4, 5, 105, 104
5, 5, 6, 106, 105
6, 6, 7, 107, 106
7, 7, 8, 108, 107
8, 8, 9, 109, 108
9, 9, 10, 110, 109
10, 10, 11, 111, 110
11, 11, 12, 112, 111
12, 12, 13, 113, 112
13, 13, 14, 114, 113
14, 14, 15, 115, 114
15, 15, 16, 116, 115
16, 16, 17, 117, 116
17, 17, 18, 118, 117
18, 18, 19, 119, 118
19, 19, 20, 120, 119
20, 20, 21, 121, 120
** ... 398 like lines cut
*ELSET, ELSET=STRATUM
331, 332, 333, 334, 335, 336, 337, 338, 339, 340, 341, 342
343, 344, 345, 346, 347, 348, 349, 350, 351, 352, 353, 354
355, 356, 357, 358, 359, 360, 361, 362, 363, 364, 365, 366
367, 368, 369, 370, 371, 372, 373, 374, 375, 376, 377, 378
379, 380, 381, 382, 383, 384, 385, 386, 387, 388, 389, 390
391, 392, 393, 394, 395, 396, 397, 398, 399, 400, 401, 402
403, 404, 405, 406, 407, 408, 409, 410, 411, 412, 413, 414
415, 416, 417, 418
*ELSET, ELSET=EPIDERMIS
243, 244, 245, 246, 247, 248, 249, 250, 251, 252, 253, 254
255, 256, 257, 258, 259, 260, 261, 262, 263, 264, 265, 266
267, 268, 269, 270, 271, 272, 273, 274, 275, 276, 277, 278
279, 280, 281, 282, 283, 284, 285, 286, 287, 288, 289, 290
291, 292, 293, 294, 295, 296, 297, 298, 299, 300, 301, 302
303, 304, 305, 306, 307, 308, 309, 310, 311, 312, 313, 314
315, 316, 317, 318, 319, 320, 321, 322, 323, 324, 325, 326
327, 328, 329, 330
*ELSET, ELSET=DERMIS
1, 2, 3, 4, 5, 6, 7, 8, 9, 10, 11, 12
13, 14, 15, 16, 17, 18, 19, 20, 21, 22, 23, 24
25, 26, 27, 28, 29, 30, 31, 32, 33, 34, 35, 36
37, 38, 39, 40, 41, 42, 43, 44, 45, 46, 47, 48
49, 50, 51, 52, 53, 54, 55, 56, 57, 58, 59, 60
61, 62, 63, 64, 65, 66, 67, 68, 69, 70, 71, 72
73, 74, 75, 76, 77, 78, 79, 80, 81, 82, 83, 84
85, 86, 87, 88, 89, 90, 91, 92, 93, 94, 95, 96
97, 98, 99, 100, 101, 102, 103, 104, 105, 106, 107, 108
109, 110, 111, 112, 113, 114, 115, 116, 117, 118, 119, 120
121, 122, 123, 124, 125, 126, 127, 128, 129, 130, 131, 132
133, 134, 135, 136, 137, 138, 139, 140, 141, 142, 143, 144
145, 146, 147, 148, 149, 150, 151, 152, 153, 154, 155, 156
157, 158, 159, 160, 161, 162, 163, 164, 165, 166, 167, 168
169, 170, 171, 172, 173, 174, 175, 176, 177, 178, 179, 180
181, 182, 183, 184, 185, 186, 187, 188, 189, 190, 191, 192
193, 194, 195, 196, 197, 198, 199, 200, 201, 202, 203, 204
205, 206, 207, 208, 209, 210, 211, 212, 213, 214, 215, 216
217, 218, 219, 220, 221, 222, 223, 224, 225, 226, 227, 228
229, 230, 231, 232, 233, 234, 235, 236, 237, 238, 239, 240
241, 242
*ELSET, ELSET=SKIN_ALL
STRATUM, EPIDERMIS, DERMIS
*SURFACE, TYPE=ELEMENT, NAME=SKIN_SURF
SKIN_ALL,
*NSET, NSET=NBOT
1, 2, 3, 4, 5, 6, 7, 8, 9, 10, 11, 12
13, 14, 15, 16, 17, 18, 19, 20, 21, 22, 23
*NSET, NSET=NAXIS
1, 101, 201, 301, 401, 501, 601, 701, 801, 901, 1001, 1101
1201, 1301, 1401, 1501, 1601, 1701, 1801, 1901
*NSET, NSET=NRIGHT
23, 123, 223, 323, 423, 523, 623, 723, 823, 923, 1023, 1123
1223, 1323, 1423, 1523, 1623, 1723, 1823, 1923
*NODE
9999, 0.0, 1.52000
*NSET, NSET=NREF
9999,
*SURFACE, TYPE=SEGMENTS, NAME=NEEDLE, FILLET RADIUS=0.01
START, 0.15, 3.50000
LINE,  0.15, 1.90000
LINE,  0.02, 1.52000
*RIGID BODY, ANALYTICAL SURFACE=NEEDLE, REF NODE=NREF
*MATERIAL, NAME=MAT_STRATUM
*DENSITY
1.2e-9,
*USER MATERIAL, CONSTANTS=4
1.0, 0.02, 1.2, 1.5
*DEPVAR, DELETE=1
4
1, DELFLAG, deletion flag
2, LAMMAX, max principal stretch
3, DAMAGE, damage variable
4, JVOL, relative volume
*MATERIAL, NAME=MAT_EPIDERMIS
*DENSITY
1.1e-9,
*USER MATERIAL, CONSTANTS=4
0.1, 0.1, 1.4, 1.9
*DEPVAR, DELETE=1
4
1, DELFLAG, deletion flag
2, LAMMAX, max principal stretch
3, DAMAGE, damage variable
4, JVOL, relative volume
*MATERIAL, NAME=MAT_DERMIS
*DENSITY
1.1e-9,
*USER MATERIAL, CONSTANTS=4
0.02, 1.0, 1.6, 2.5
*DEPVAR, DELETE=1
4
1, DELFLAG, deletion flag
2, LAMMAX, max principal stretch
3, DAMAGE, damage variable
4, JVOL, relative volume
*SOLID SECTION, ELSET=STRATUM, MATERIAL=MAT_STRATUM
*SOLID SECTION, ELSET=EPIDERMIS, MATERIAL=MAT_EPIDERMIS
*SOLID SECTION, ELSET=DERMIS, MATERIAL=MAT_DERMIS
*SURFACE INTERACTION, NAME=IPROP
*FRICTION
0.1,
*BOUNDARY
NBOT, 2, 2
NAXIS, 1, 1
NRIGHT, 1, 1
NREF, 1, 1
NREF, 6, 6
*AMPLITUDE, NAME=PUSH, DEFINITION=SMOOTH STEP
0.0, 0.0, 0.01, 1.0
*STEP, NAME=PENETRATION
*DYNAMIC, EXPLICIT
, 0.01
*FIXED MASS SCALING, DT=2.0e-7, TYPE=BELOW MIN
*BOUNDARY, AMPLITUDE=PUSH
NREF, 2, 2, -1.2
*CONTACT
*CONTACT INCLUSIONS, ALL EXTERIOR
*CONTACT INCLUSIONS
NEEDLE, SKIN_SURF
*CONTACT PROPERTY ASSIGNMENT
 ,  , IPROP
*OUTPUT, FIELD, NUMBER INTERVAL=25
*ELEMENT OUTPUT, ELSET=SKIN_ALL
S, LE, SDV, STATUS
*NODE OUTPUT
U, V
*OUTPUT, HISTORY, TIME INTERVAL=1.0e-4
*NODE OUTPUT, NSET=NREF
U2, V2, RF2
*ENERGY OUTPUT
ALLIE, ALLKE, ALLSE, ALLWK
*END STEP
