*HEADING
Path-refined axisymmetric 3-layer skin penetration (stretch-based failure)
Units: mm, N, MPa, tonne, s
*NODE
1, 0.000000, 0.000000
2, 0.010000, 0.000000
3, 0.020000, 0.000000
4, 0.030000, 0.000000
5, 0.040000, 0.000000
6, 0.050000, 0.000000
7, 0.060000, 0.000000
8, 0.070000, 0.000000
9, 0.080000, 0.000000
10, 0.090000, 0.000000
11, 0.100000, 0.000000
12, 0.110000, 0.000000
13, 0.120000, 0.000000
14, 0.130000, 0.000000
15, 0.140000, 0.000000
16, 0.150000, 0.000000
17, 0.160000, 0.000000
18, 0.170000, 0.000000
19, 0.180000, 0.000000
20, 0.190000, 0.000000
** ... 860 like lines cut
*ELEMENT, TYPE=CAX4R
1, 1, 2, 102, 101
2, 2, 3, 103, 102
3, 3, 4, 104, 103
4, 4, 5, 105, 104
5, 5, 6, 106, 105
6, 6, 7, 107, 106
7, 7, 8, 108, 107
8, 8, 9, 109, 108
9, 9, 10, 110, 109
10, 10, 11, 111, 110
11, 11, 12, 112, 111
12, 12, 13, 113, 112
13, 13, 14, 114, 113
14, 14, 15, 115, 114
15, 15, 16, 116, 115
16, 16, 17, 117, 116
17, 17, 18, 118, 117
18, 18, 19, 119, 118
19, 19, 20, 120, 119
20, 20, 21, 121, 120
** ... 797 like lines cut
*ELSET, ELSET=STRATUM
646, 647, 648, 649, 650, 651, 652, 653, 654, 655, 656, 657
658, 659, 660, 661, 662, 663, 664, 665, 666, 667, 668, 669
670, 671, 672, 673, 674, 675, 676, 677, 678, 679, 680, 681
682, 683, 684, 685, 686, 687, 688, 689, 690, 691, 692, 693
694, 695, 696, 697, 698, 699, 700, 701, 702, 703, 704, 705
706, 707, 708, 709, 710, 711, 712, 713, 714, 715, 716, 717
718, 719, 720, 721, 722, 723, 724, 725, 726, 727, 728, 729
730, 731, 732, 733, 734, 735, 736, 737, 738, 739, 740, 741
742, 743, 744, 745, 746, 747, 748, 749, 750, 751, 752, 753
754, 755, 756, 757, 758, 759, 760, 761, 762, 763, 764, 765
766, 767, 768, 769, 770, 771, 772, 773, 774, 775, 776, 777
778, 779, 780, 781, 782, 783, 784, 785, 786, 787, 788, 789
790, 791, 792, 793, 794, 795, 796, 797, 798, 799, 800, 801
802, 803, 804, 805, 806, 807, 808, 809, 810, 811, 812, 813
814, 815, 816, 817
*ELSET, ELSET=EPIDERMIS
474, 475, 476, 477, 478, 479, 480, 481, 482, 483, 484, 485
486, 487, 488, 489, 490, 491, 492, 493, 494, 495, 496, 497
498, 499, 500, 501, 502, 503, 504, 505, 506, 507, 508, 509
510, 511, 512, 513, 514, 515, 516, 517, 518, 519, 520, 521
522, 523, 524, 525, 526, 527, 528, 529, 530, 531, 532, 533
534, 535, 536, 537, 538, 539, 540, 541, 542, 543, 544, 545
546, 547, 548, 549, 550, 551, 552, 553, 554, 555, 556, 557
558, 559, 560, 561, 562, 563, 564, 565, 566, 567, 568, 569
570, 571, 572, 573, 574, 575, 576, 577, 578, 579, 580, 581
582, 583, 584, 585, 586, 587, 588, 589, 590, 591, 592, 593
594, 595, 596, 597, 598, 599, 600, 601, 602, 603, 604, 605
606, 607, 608, 609, 610, 611, 612, 613, 614, 615, 616, 617
618, 619, 620, 621, 622, 623, 624, 625, 626, 627, 628, 629
630, 631, 632, 633, 634, 635, 636, 637, 638, 639, 640, 641
642, 643, 644, 645
*ELSET, ELSET=DERMIS
1, 2, 3, 4, 5, 6, 7, 8, 9, 10, 11, 12
13, 14, 15, 16, 17, 18, 19, 20, 21, 22, 23, 24
25, 26, 27, 28, 29, 30, 31, 32, 33, 34, 35, 36
37, 38, 39, 40, 41, 42, 43, 44, 45, 46, 47, 48
49, 50, 51, 52, 53, 54, 55, 56, 57, 58, 59, 60
61, 62, 63, 64, 65, 66, 67, 68, 69, 70, 71, 72
73, 74, 75, 76, 77, 78, 79, 80, 81, 82, 83, 84
85, 86, 87, 88, 89, 90, 91, 92, 93, 94, 95, 96
97, 98, 99, 100, 101, 102, 103, 104, 105, 106, 107, 108
109, 110, 111, 112, 113, 114, 115, 116, 117, 118, 119, 120
121, 122, 123, 124, 125, 126, 127, 128, 129, 130, 131, 132
133, 134, 135, 136, 137, 138, 139, 140, 141, 142, 143, 144
145, 146, 147, 148, 149, 150, 151, 152, 153, 154, 155, 156
157, 158, 159, 160, 161, 162, 163, 164, 165, 166, 167, 168
169, 170, 171, 172, 173, 174, 175, 176, 177, 178, 179, 180
181, 182, 183, 184, 185, 186, 187, 188, 189, 190, 191, 192
193, 194, 195, 196, 197, 198, 199, 200, 201, 202, 203, 204
205, 206, 207, 208, 209, 210, 211, 212, 213, 214, 215, 216
217, 218, 219, 220, 221, 222, 223, 224, 225, 226, 227, 228
229, 230, 231, 232, 233, 234, 235, 236, 237, 238, 239, 240
** ... 20 like lines cut
*ELSET, ELSET=SKIN_ALL
STRATUM, EPIDERMIS, DERMIS
*SURFACE, TYPE=ELEMENT, NAME=SKIN_SURF
SKIN_ALL,
*NSET, NSET=NBOT
1, 2, 3, 4, 5, 6, 7, 8, 9, 10, 11, 12
13, 14, 15, 16, 17, 18, 19, 20, 21, 22, 23, 24
25, 26, 27, 28, 29, 30, 31, 32, 33, 34, 35, 36
37, 38, 39, 40, 41, 42, 43, 44
*NSET, NSET=NAXIS
1, 101, 201, 301, 401, 501, 601, 701, 801, 901, 1001, 1101
1201, 1301, 1401, 1501, 1601, 1701, 1801, 1901
*NSET, NSET=NRIGHT
44, 144, 244, 344, 444, 544, 644, 744, 844, 944, 1044, 1144
1244, 1344, 1444, 1544, 1644, 1744, 1844, 1944
*NODE
9999, 0.0, 1.55000
*NSET, NSET=NREF
9999,
*SURFACE, TYPE=SEGMENTS, NAME=NEEDLE, FILLET RADIUS=0.02
START, 0.15, 3.50000
LINE,  0.15, 1.98000
LINE,  0.05, 1.60000
CIRCL, 0.00, 1.55000, 0.00, 1.60000
*RIGID BODY, ANALYTICAL SURFACE=NEEDLE, REF NODE=NREF
*MATERIAL, NAME=MAT_STRATUM
*DENSITY
1.2e-9,
*USER MATERIAL, CONSTANTS=4
1.0, 0.02, 1.2, 1.5
*DEPVAR, DELETE=1
4
1, DELFLAG, deletion flag
2, LAMMAX, max principal stretch
3, DAMAGE, damage variable
4, JVOL, relative volume
*MATERIAL, NAME=MAT_EPIDERMIS
*DENSITY
1.1e-9,
*USER MATERIAL, CONSTANTS=4
0.1, 0.1, 1.4, 1.9
*DEPVAR, DELETE=1
4
1, DELFLAG, deletion flag
2, LAMMAX, max principal stretch
3, DAMAGE, damage variable
4, JVOL, relative volume
*MATERIAL, NAME=MAT_DERMIS
*DENSITY
1.1e-9,
*USER MATERIAL, CONSTANTS=4
0.02, 1.0, 1.6, 2.5
*DEPVAR, DELETE=1
4
1, DELFLAG, deletion flag
2, LAMMAX, max principal stretch
3, DAMAGE, damage variable
4, JVOL, relative volume
*SOLID SECTION, ELSET=STRATUM, MATERIAL=MAT_STRATUM
*SOLID SECTION, ELSET=EPIDERMIS, MATERIAL=MAT_EPIDERMIS
*SOLID SECTION, ELSET=DERMIS, MATERIAL=MAT_DERMIS
*SURFACE INTERACTION, NAME=IPROP
*FRICTION
0.1,
*SURFACE BEHAVIOR, PRESSURE-OVERCLOSURE=HARD
*BOUNDARY
NBOT, 2, 2
NAXIS, 1, 1
NRIGHT, 1, 1
NREF, 1, 1
NREF, 6, 6
*AMPLITUDE, NAME=PUSH, DEFINITION=SMOOTH STEP
0.0, 0.0, 0.01, 1.0
*STEP, NAME=PENETRATION
*DYNAMIC, EXPLICIT
, 0.01
*FIXED MASS SCALING, DT=2.0e-7, TYPE=BELOW MIN
*BOUNDARY, AMPLITUDE=PUSH
NREF, 2, 2, -1.2
*CONTACT
*CONTACT INCLUSIONS, ALL EXTERIOR
*CONTACT INCLUSIONS
NEEDLE, SKIN_SURF
*CONTACT PROPERTY ASSIGNMENT
 ,  , IPROP
*OUTPUT, FIELD, NUMBER INTERVAL=25
*ELEMENT OUTPUT, ELSET=SKIN_ALL
S, LE, SDV, STATUS
*NODE OUTPUT
U, V
*OUTPUT, HISTORY, TIME INTERVAL=1.0e-4
*NODE OUTPUT, NSET=NREF
U2, V2, RF2
*ENERGY OUTPUT
ALLIE, ALLKE, ALLSE, ALLWK
*END STEP
