*HEADING
(4) Cohesive-layer cutting - plane strain, needle wedge splits skin
Bulk: built-in Neo-Hookean; center x=0: cohesive traction-separation
Units: mm, N, MPa, tonne, s
*NODE
1, -1.000000, 0.000000
2, -0.851290, 0.000000
3, -0.721976, 0.000000
4, -0.609530, 0.000000
5, -0.511750, 0.000000
6, -0.426724, 0.000000
7, -0.352789, 0.000000
8, -0.288497, 0.000000
9, -0.232592, 0.000000
10, -0.183978, 0.000000
11, -0.141705, 0.000000
12, -0.104946, 0.000000
13, -0.072982, 0.000000
14, -0.045187, 0.000000
15, -0.021017, 0.000000
16, -0.000000, 0.000000
1001, -1.000000, 0.196993
1002, -0.851290, 0.196993
1003, -0.721976, 0.196993
1004, -0.609530, 0.196993
** ... 524 like lines cut
*ELEMENT, TYPE=CPE4R
1, 1, 2, 1002, 1001
2, 2, 3, 1003, 1002
3, 3, 4, 1004, 1003
4, 4, 5, 1005, 1004
5, 5, 6, 1006, 1005
6, 6, 7, 1007, 1006
7, 7, 8, 1008, 1007
8, 8, 9, 1009, 1008
9, 9, 10, 1010, 1009
10, 10, 11, 1011, 1010
11, 11, 12, 1012, 1011
12, 12, 13, 1013, 1012
13, 13, 14, 1014, 1013
14, 14, 15, 1015, 1014
15, 15, 16, 1016, 1015
16, 1001, 1002, 2002, 2001
17, 1002, 1003, 2003, 2002
18, 1003, 1004, 2004, 2003
19, 1004, 1005, 2005, 2004
20, 1005, 1006, 2006, 2005
** ... 460 like lines cut
*ELEMENT, TYPE=COH2D4
481, 16, 1016, 1001000, 1000000
482, 1016, 2016, 1002000, 1001000
483, 2016, 3016, 1003000, 1002000
484, 3016, 4016, 1004000, 1003000
485, 4016, 5016, 1005000, 1004000
486, 5016, 6016, 1006000, 1005000
487, 6016, 7016, 1007000, 1006000
488, 7016, 8016, 1008000, 1007000
489, 8016, 9016, 1009000, 1008000
490, 9016, 10016, 1010000, 1009000
491, 10016, 11016, 1011000, 1010000
492, 11016, 12016, 1012000, 1011000
493, 12016, 13016, 1013000, 1012000
494, 13016, 14016, 1014000, 1013000
495, 14016, 15016, 1015000, 1014000
496, 15016, 16016, 1016000, 1015000
*ELSET, ELSET=BULK, GENERATE
1, 480, 1
*ELSET, ELSET=COH, GENERATE
481, 496, 1
*SURFACE, TYPE=ELEMENT, NAME=SKIN_SURF
BULK,
*NSET, NSET=NBOT
1, 2, 3, 4, 5, 6, 7, 8, 9, 10, 11, 12
13, 14, 15, 16, 1000000, 1000001, 1000002, 1000003, 1000004, 1000005, 1000006, 1000007
1000008, 1000009, 1000010, 1000011, 1000012, 1000013, 1000014, 1000015
*NODE
9999, 0.0, 1.22000
*NSET, NSET=NREF
9999,
*SURFACE, TYPE=SEGMENTS, NAME=NEEDLE, FILLET RADIUS=0.01
START, -0.20, 1.80000
LINE,   0.00, 1.22000
LINE,   0.20, 1.80000
*RIGID BODY, ANALYTICAL SURFACE=NEEDLE, REF NODE=NREF
*MATERIAL, NAME=SKIN
*DENSITY
1.1e-9,
*HYPERELASTIC, NEO HOOKE
0.05, 0.5
*SOLID SECTION, ELSET=BULK, MATERIAL=SKIN
*MATERIAL, NAME=COHMAT
*DENSITY
1.1e-9,
*ELASTIC, TYPE=TRACTION
1000.0, 1000.0, 1000.0
*DAMAGE INITIATION, CRITERION=MAXS
0.15, 0.15, 0.15
*DAMAGE EVOLUTION, TYPE=ENERGY
0.01,
*COHESIVE SECTION, ELSET=COH, MATERIAL=COHMAT, RESPONSE=TRACTION SEPARATION, THICKNESS=SPECIFIED
1.0,
*SURFACE INTERACTION, NAME=IPROP
*FRICTION
0.1,
*SURFACE BEHAVIOR, PRESSURE-OVERCLOSURE=HARD
*BOUNDARY
NBOT, 1, 2
NREF, 1, 1
NREF, 6, 6
*AMPLITUDE, NAME=PUSH, DEFINITION=SMOOTH STEP
0.0, 0.0, 0.01, 1.0
*STEP, NAME=CUT
*DYNAMIC, EXPLICIT
, 0.01
*FIXED MASS SCALING, DT=5.0e-7, TYPE=BELOW MIN
*BOUNDARY, AMPLITUDE=PUSH
NREF, 2, 2, -0.8
*CONTACT
*CONTACT INCLUSIONS, ALL EXTERIOR
*CONTACT INCLUSIONS
NEEDLE, SKIN_SURF
*CONTACT PROPERTY ASSIGNMENT
 ,  , IPROP
*OUTPUT, FIELD, NUMBER INTERVAL=25
*ELEMENT OUTPUT, ELSET=BULK
S, LE
*ELEMENT OUTPUT, ELSET=COH
SDEG, STATUS
*NODE OUTPUT
U, V
*OUTPUT, HISTORY, TIME INTERVAL=1.0e-4
*NODE OUTPUT, NSET=NREF
U2, V2, RF2
*ENERGY OUTPUT
ALLIE, ALLKE, ALLSE, ALLDMD
*END STEP
