*HEADING
[C] user VUMAT CZM : axisymmetric cohesive cutting (coring incision)
Bulk: built-in Neo-Hookean; r=50 um: COHAX4 traction-separation
Units: um, uN, MPa, s
*NODE
1, 0.0000, 0.0000
2, 5.0000, 0.0000
3, 10.0000, 0.0000
4, 15.0000, 0.0000
5, 20.0000, 0.0000
6, 25.0000, 0.0000
7, 30.0000, 0.0000
8, 35.0000, 0.0000
9, 40.0000, 0.0000
10, 45.0000, 0.0000
11, 50.0000, 0.0000
10001, 0.0000, 37.0942
10002, 5.0000, 37.0942
10003, 10.0000, 37.0942
10004, 15.0000, 37.0942
10005, 20.0000, 37.0942
10006, 25.0000, 37.0942
10007, 30.0000, 37.0942
10008, 35.0000, 37.0942
10009, 40.0000, 37.0942
** ... 3457 like lines cut
*ELEMENT, TYPE=CAX4R
1, 1, 2, 10002, 10001
2, 2, 3, 10003, 10002
3, 3, 4, 10004, 10003
4, 4, 5, 10005, 10004
5, 5, 6, 10006, 10005
6, 6, 7, 10007, 10006
7, 7, 8, 10008, 10007
8, 8, 9, 10009, 10008
9, 9, 10, 10010, 10009
10, 10, 11, 10011, 10010
11, 10001, 10002, 20002, 20001
12, 10002, 10003, 20003, 20002
13, 10003, 10004, 20004, 20003
14, 10004, 10005, 20005, 20004
15, 10005, 10006, 20006, 20005
16, 10006, 10007, 20007, 20006
17, 10007, 10008, 20008, 20007
18, 10008, 10009, 20009, 20008
19, 10009, 10010, 20010, 20009
20, 10010, 10011, 20011, 20010
** ... 3280 like lines cut
*ELEMENT, TYPE=COHAX4
3301, 11, 10011, 5010000, 5000000
3302, 10011, 20011, 5020000, 5010000
3303, 20011, 30011, 5030000, 5020000
3304, 30011, 40011, 5040000, 5030000
3305, 40011, 50011, 5050000, 5040000
3306, 50011, 60011, 5060000, 5050000
3307, 60011, 70011, 5070000, 5060000
3308, 70011, 80011, 5080000, 5070000
3309, 80011, 90011, 5090000, 5080000
3310, 90011, 100011, 5100000, 5090000
3311, 100011, 110011, 5110000, 5100000
3312, 110011, 120011, 5120000, 5110000
3313, 120011, 130011, 5130000, 5120000
3314, 130011, 140011, 5140000, 5130000
3315, 140011, 150011, 5150000, 5140000
3316, 150011, 160011, 5160000, 5150000
3317, 160011, 170011, 5170000, 5160000
3318, 170011, 180011, 5180000, 5170000
3319, 180011, 190011, 5190000, 5180000
3320, 190011, 200011, 5200000, 5190000
** ... 40 like lines cut
*ELSET, ELSET=CORE, GENERATE
1, 600, 1
*ELSET, ELSET=OUTER, GENERATE
601, 3300, 1
*ELSET, ELSET=BULK
CORE, OUTER
*ELSET, ELSET=COH, GENERATE
3301, 3360, 1
*SURFACE, TYPE=ELEMENT, NAME=SKIN_SURF
BULK,
*NSET, NSET=NBOT
1, 2, 3, 4, 5, 6, 7, 8, 9, 10, 11, 5000000
5000001, 5000002, 5000003, 5000004, 5000005, 5000006, 5000007, 5000008, 5000009, 5000010, 5000011, 5000012
5000013, 5000014, 5000015, 5000016, 5000017, 5000018, 5000019, 5000020, 5000021, 5000022, 5000023, 5000024
5000025, 5000026, 5000027, 5000028, 5000029, 5000030, 5000031, 5000032, 5000033, 5000034, 5000035, 5000036
5000037, 5000038, 5000039, 5000040, 5000041, 5000042, 5000043, 5000044, 5000045
*NSET, NSET=NAXIS, GENERATE
1, 600001, 10000
*NSET, NSET=NRIGHT, GENERATE
5000045, 5600045, 10000
*NODE
9999, 0.0, 820.0000
*NSET, NSET=NREF
9999,
*SURFACE, TYPE=SEGMENTS, NAME=NEEDLE, FILLET RADIUS=5.0
START, 50.0000, 1420.0000
LINE,  50.0000, 870.0000
CIRCL, 0.0, 820.0000, 0.0, 870.0000
*RIGID BODY, ANALYTICAL SURFACE=NEEDLE, REF NODE=NREF
*MATERIAL, NAME=SKIN
*DENSITY
1.1e-15,
*HYPERELASTIC, NEO HOOKE
0.05, 0.5
*SOLID SECTION, ELSET=BULK, MATERIAL=SKIN
*MATERIAL, NAME=COHMAT
*DENSITY
1.1e-15,
*USER MATERIAL, CONSTANTS=5
4, 2, 10, 1, 1.0
*DEPVAR, DELETE=6
7
1, EPSN, normal nominal strain
2, EPSS1, shear1 nominal strain
3, EPSS2, shear2 nominal strain
4, DMAX, max effective separation
5, SDEG, damage
6, STATUS, delete flag
7, DELM, effective separation
*COHESIVE SECTION, ELSET=COH, MATERIAL=COHMAT, RESPONSE=TRACTION SEPARATION, THICKNESS=SPECIFIED
1,
*SURFACE INTERACTION, NAME=IPROP
*FRICTION
0.1,
*SURFACE BEHAVIOR, PRESSURE-OVERCLOSURE=HARD
*BOUNDARY
NBOT, 2, 2
NAXIS, 1, 1
NRIGHT, 1, 1
NREF, 1, 1
NREF, 6, 6
*AMPLITUDE, NAME=PUSH, DEFINITION=SMOOTH STEP
0.0, 0.0, 0.02, 1.0
*STEP, NAME=CUT
*DYNAMIC, EXPLICIT
, 0.02
*FIXED MASS SCALING, DT=2.0e-7, TYPE=BELOW MIN
*BOUNDARY, AMPLITUDE=PUSH
NREF, 2, 2, -500.0
*CONTACT
*CONTACT INCLUSIONS, ALL EXTERIOR
*CONTACT INCLUSIONS
NEEDLE, SKIN_SURF
*CONTACT PROPERTY ASSIGNMENT
 ,  , IPROP
*OUTPUT, FIELD, NUMBER INTERVAL=25
*ELEMENT OUTPUT, ELSET=BULK
S, LE
*ELEMENT OUTPUT, ELSET=COH
SDV, STATUS
*NODE OUTPUT
U, V
*OUTPUT, HISTORY, TIME INTERVAL=1.0e-4
*NODE OUTPUT, NSET=NREF
U2, V2, RF2
*ENERGY OUTPUT
ALLIE, ALLKE, ALLSE, ALLDMD
*END STEP
