*HEADING
[A-2] Deformable thick-wall shell microneedle (CAX4R tube)
Units: um, uN, MPa, s ; needle=deformable 2D solid, wall=20um
*NODE
1, 0.0000, 0.0000
2, 5.0000, 0.0000
3, 10.0000, 0.0000
4, 15.0000, 0.0000
5, 20.0000, 0.0000
6, 25.0000, 0.0000
7, 30.0000, 0.0000
8, 35.0000, 0.0000
9, 40.0000, 0.0000
10, 45.0000, 0.0000
11, 50.0000, 0.0000
12, 55.0000, 0.0000
13, 60.0000, 0.0000
14, 65.0000, 0.0000
15, 70.0000, 0.0000
16, 75.0000, 0.0000
17, 80.0000, 0.0000
18, 85.0000, 0.0000
19, 90.0000, 0.0000
20, 95.0000, 0.0000
** ... 2584 like lines cut
*ELEMENT, TYPE=CAX4R
1, 1, 2, 100002, 100001
2, 2, 3, 100003, 100002
3, 3, 4, 100004, 100003
4, 4, 5, 100005, 100004
5, 5, 6, 100006, 100005
6, 6, 7, 100007, 100006
7, 7, 8, 100008, 100007
8, 8, 9, 100009, 100008
9, 9, 10, 100010, 100009
10, 10, 11, 100011, 100010
11, 11, 12, 100012, 100011
12, 12, 13, 100013, 100012
13, 13, 14, 100014, 100013
14, 14, 15, 100015, 100014
15, 15, 16, 100016, 100015
16, 16, 17, 100017, 100016
17, 17, 18, 100018, 100017
18, 18, 19, 100019, 100018
19, 19, 20, 100020, 100019
20, 20, 21, 100021, 100020
** ... 2470 like lines cut
*ELSET, ELSET=STRATUM
1827, 1828, 1829, 1830, 1831, 1832, 1833, 1834, 1835, 1836, 1837, 1838
1839, 1840, 1841, 1842, 1843, 1844, 1845, 1846, 1847, 1848, 1849, 1850
1851, 1852, 1853, 1854, 1855, 1856, 1857, 1858, 1859, 1860, 1861, 1862
1863, 1864, 1865, 1866, 1867, 1868, 1869, 1870, 1871, 1872, 1873, 1874
1875, 1876, 1877, 1878, 1879, 1880, 1881, 1882, 1883, 1884, 1885, 1886
1887, 1888, 1889, 1890, 1891, 1892, 1893, 1894, 1895, 1896, 1897, 1898
1899, 1900, 1901, 1902, 1903, 1904, 1905, 1906, 1907, 1908, 1909, 1910
1911, 1912, 1913, 1914, 1915, 1916, 1917, 1918, 1919, 1920, 1921, 1922
1923, 1924, 1925, 1926, 1927, 1928, 1929, 1930, 1931, 1932, 1933, 1934
1935, 1936, 1937, 1938, 1939, 1940, 1941, 1942, 1943, 1944, 1945, 1946
1947, 1948, 1949, 1950, 1951, 1952, 1953, 1954, 1955, 1956, 1957, 1958
1959, 1960, 1961, 1962, 1963, 1964, 1965, 1966, 1967, 1968, 1969, 1970
1971, 1972, 1973, 1974, 1975, 1976, 1977, 1978, 1979, 1980, 1981, 1982
1983, 1984, 1985, 1986, 1987, 1988, 1989, 1990, 1991, 1992, 1993, 1994
1995, 1996, 1997, 1998, 1999, 2000, 2001, 2002, 2003, 2004, 2005, 2006
2007, 2008, 2009, 2010, 2011, 2012, 2013, 2014, 2015, 2016, 2017, 2018
2019, 2020, 2021, 2022, 2023, 2024, 2025, 2026, 2027, 2028, 2029, 2030
2031, 2032, 2033, 2034, 2035, 2036, 2037, 2038, 2039, 2040, 2041, 2042
2043, 2044, 2045, 2046, 2047, 2048, 2049, 2050, 2051, 2052, 2053, 2054
2055, 2056, 2057, 2058, 2059, 2060, 2061, 2062, 2063, 2064, 2065, 2066
** ... 36 like lines cut
*ELSET, ELSET=EPIDERMIS
1163, 1164, 1165, 1166, 1167, 1168, 1169, 1170, 1171, 1172, 1173, 1174
1175, 1176, 1177, 1178, 1179, 1180, 1181, 1182, 1183, 1184, 1185, 1186
1187, 1188, 1189, 1190, 1191, 1192, 1193, 1194, 1195, 1196, 1197, 1198
1199, 1200, 1201, 1202, 1203, 1204, 1205, 1206, 1207, 1208, 1209, 1210
1211, 1212, 1213, 1214, 1215, 1216, 1217, 1218, 1219, 1220, 1221, 1222
1223, 1224, 1225, 1226, 1227, 1228, 1229, 1230, 1231, 1232, 1233, 1234
1235, 1236, 1237, 1238, 1239, 1240, 1241, 1242, 1243, 1244, 1245, 1246
1247, 1248, 1249, 1250, 1251, 1252, 1253, 1254, 1255, 1256, 1257, 1258
1259, 1260, 1261, 1262, 1263, 1264, 1265, 1266, 1267, 1268, 1269, 1270
1271, 1272, 1273, 1274, 1275, 1276, 1277, 1278, 1279, 1280, 1281, 1282
1283, 1284, 1285, 1286, 1287, 1288, 1289, 1290, 1291, 1292, 1293, 1294
1295, 1296, 1297, 1298, 1299, 1300, 1301, 1302, 1303, 1304, 1305, 1306
1307, 1308, 1309, 1310, 1311, 1312, 1313, 1314, 1315, 1316, 1317, 1318
1319, 1320, 1321, 1322, 1323, 1324, 1325, 1326, 1327, 1328, 1329, 1330
1331, 1332, 1333, 1334, 1335, 1336, 1337, 1338, 1339, 1340, 1341, 1342
1343, 1344, 1345, 1346, 1347, 1348, 1349, 1350, 1351, 1352, 1353, 1354
1355, 1356, 1357, 1358, 1359, 1360, 1361, 1362, 1363, 1364, 1365, 1366
1367, 1368, 1369, 1370, 1371, 1372, 1373, 1374, 1375, 1376, 1377, 1378
1379, 1380, 1381, 1382, 1383, 1384, 1385, 1386, 1387, 1388, 1389, 1390
1391, 1392, 1393, 1394, 1395, 1396, 1397, 1398, 1399, 1400, 1401, 1402
** ... 36 like lines cut
*ELSET, ELSET=DERMIS
1, 2, 3, 4, 5, 6, 7, 8, 9, 10, 11, 12
13, 14, 15, 16, 17, 18, 19, 20, 21, 22, 23, 24
25, 26, 27, 28, 29, 30, 31, 32, 33, 34, 35, 36
37, 38, 39, 40, 41, 42, 43, 44, 45, 46, 47, 48
49, 50, 51, 52, 53, 54, 55, 56, 57, 58, 59, 60
61, 62, 63, 64, 65, 66, 67, 68, 69, 70, 71, 72
73, 74, 75, 76, 77, 78, 79, 80, 81, 82, 83, 84
85, 86, 87, 88, 89, 90, 91, 92, 93, 94, 95, 96
97, 98, 99, 100, 101, 102, 103, 104, 105, 106, 107, 108
109, 110, 111, 112, 113, 114, 115, 116, 117, 118, 119, 120
121, 122, 123, 124, 125, 126, 127, 128, 129, 130, 131, 132
133, 134, 135, 136, 137, 138, 139, 140, 141, 142, 143, 144
145, 146, 147, 148, 149, 150, 151, 152, 153, 154, 155, 156
157, 158, 159, 160, 161, 162, 163, 164, 165, 166, 167, 168
169, 170, 171, 172, 173, 174, 175, 176, 177, 178, 179, 180
181, 182, 183, 184, 185, 186, 187, 188, 189, 190, 191, 192
193, 194, 195, 196, 197, 198, 199, 200, 201, 202, 203, 204
205, 206, 207, 208, 209, 210, 211, 212, 213, 214, 215, 216
217, 218, 219, 220, 221, 222, 223, 224, 225, 226, 227, 228
229, 230, 231, 232, 233, 234, 235, 236, 237, 238, 239, 240
** ... 77 like lines cut
*ELSET, ELSET=SKIN_ALL
STRATUM, EPIDERMIS, DERMIS
*SURFACE, TYPE=ELEMENT, NAME=SKIN_SURF
SKIN_ALL,
*NSET, NSET=NBOT
1, 2, 3, 4, 5, 6, 7, 8, 9, 10, 11, 12
13, 14, 15, 16, 17, 18, 19, 20, 21, 22, 23, 24
25, 26, 27, 28, 29, 30, 31, 32, 33, 34, 35, 36
37, 38, 39, 40, 41, 42, 43, 44, 45, 46, 47, 48
49, 50, 51, 52, 53, 54, 55, 56, 57, 58, 59, 60
61, 62, 63, 64, 65, 66, 67, 68, 69, 70, 71, 72
73, 74, 75, 76, 77, 78, 79, 80, 81, 82, 83, 84
*NSET, NSET=NAXIS
1, 100001, 200001, 300001, 400001, 500001, 600001, 700001, 800001, 900001, 1000001, 1100001
1200001, 1300001, 1400001, 1500001, 1600001, 1700001, 1800001, 1900001, 2000001, 2100001, 2200001, 2300001
2400001, 2500001, 2600001, 2700001, 2800001, 2900001, 3000001
*NSET, NSET=NRIGHT
84, 100084, 200084, 300084, 400084, 500084, 600084, 700084, 800084, 900084, 1000084, 1100084
1200084, 1300084, 1400084, 1500084, 1600084, 1700084, 1800084, 1900084, 2000084, 2100084, 2200084, 2300084
2400084, 2500084, 2600084, 2700084, 2800084, 2900084, 3000084
**
** --- Deformable needle wall as 2D solid (CAX4R, variable wall) ---
**  R_in=30 (bore) ; outer R_tip=50 -> taper 300um -> R_out=150
*NODE
5000000, 30.0000, 1550.0000
5000001, 35.0000, 1550.0000
5000002, 40.0000, 1550.0000
5000003, 45.0000, 1550.0000
5000004, 50.0000, 1550.0000
5001000, 30.0000, 1555.0000
5001001, 35.4167, 1555.0000
5001002, 40.8333, 1555.0000
5001003, 46.2500, 1555.0000
5001004, 51.6667, 1555.0000
5002000, 30.0000, 1560.7500
5002001, 35.8958, 1560.7500
5002002, 41.7917, 1560.7500
5002003, 47.6875, 1560.7500
5002004, 53.5833, 1560.7500
5003000, 30.0000, 1567.3625
5003001, 36.4469, 1567.3625
5003002, 42.8937, 1567.3625
5003003, 49.3406, 1567.3625
5003004, 55.7875, 1567.3625
** ... 286 like lines cut
*NSET, NSET=NREF
9999,
*ELEMENT, TYPE=CAX4R
2491, 5000000, 5000001, 5001001, 5001000
2492, 5000001, 5000002, 5001002, 5001001
2493, 5000002, 5000003, 5001003, 5001002
2494, 5000003, 5000004, 5001004, 5001003
2495, 5001000, 5001001, 5002001, 5002000
2496, 5001001, 5001002, 5002002, 5002001
2497, 5001002, 5001003, 5002003, 5002002
2498, 5001003, 5001004, 5002004, 5002003
2499, 5002000, 5002001, 5003001, 5003000
2500, 5002001, 5002002, 5003002, 5003001
2501, 5002002, 5002003, 5003003, 5003002
2502, 5002003, 5002004, 5003004, 5003003
2503, 5003000, 5003001, 5004001, 5004000
2504, 5003001, 5003002, 5004002, 5004001
2505, 5003002, 5003003, 5004003, 5004002
2506, 5003003, 5003004, 5004004, 5004003
2507, 5004000, 5004001, 5005001, 5005000
2508, 5004001, 5004002, 5005002, 5005001
2509, 5004002, 5004003, 5005003, 5005002
2510, 5004003, 5004004, 5005004, 5005003
** ... 220 like lines cut
*ELSET, ELSET=NEEDLE_EL, GENERATE
2491, 2730, 1
*SURFACE, TYPE=ELEMENT, NAME=NEEDLE
NEEDLE_EL,
*NSET, NSET=NDLTOP
5060000, 5060001, 5060002, 5060003, 5060004
*MATERIAL, NAME=NEEDLE_MAT
*DENSITY
7.9e-15,
*ELASTIC
2e+05, 0.3
*SOLID SECTION, ELSET=NEEDLE_EL, MATERIAL=NEEDLE_MAT
*MATERIAL, NAME=MAT_STRATUM
*DENSITY
1.2e-15,
*USER MATERIAL, CONSTANTS=4
1.0, 0.02, 1.2, 1.5
*DEPVAR, DELETE=1
4
1, DELFLAG, deletion flag
2, LAMMAX, max principal stretch
3, DAMAGE, damage variable
4, JVOL, relative volume
*MATERIAL, NAME=MAT_EPIDERMIS
*DENSITY
1.1e-15,
*USER MATERIAL, CONSTANTS=4
0.1, 0.1, 1.4, 1.9
*DEPVAR, DELETE=1
4
1, DELFLAG, deletion flag
2, LAMMAX, max principal stretch
3, DAMAGE, damage variable
4, JVOL, relative volume
*MATERIAL, NAME=MAT_DERMIS
*DENSITY
1.1e-15,
*USER MATERIAL, CONSTANTS=4
0.02, 1.0, 1.6, 2.5
*DEPVAR, DELETE=1
4
1, DELFLAG, deletion flag
2, LAMMAX, max principal stretch
3, DAMAGE, damage variable
4, JVOL, relative volume
*SOLID SECTION, ELSET=STRATUM, MATERIAL=MAT_STRATUM
*SOLID SECTION, ELSET=EPIDERMIS, MATERIAL=MAT_EPIDERMIS
*SOLID SECTION, ELSET=DERMIS, MATERIAL=MAT_DERMIS
*KINEMATIC COUPLING, REF NODE=9999
NDLTOP, 1, 2
*SURFACE INTERACTION, NAME=IPROP
*FRICTION
0.1,
*SURFACE BEHAVIOR, PRESSURE-OVERCLOSURE=HARD
*BOUNDARY
NBOT, 2, 2
NAXIS, 1, 1
NRIGHT, 1, 1
NREF, 1, 1
NREF, 6, 6
*AMPLITUDE, NAME=PUSH, DEFINITION=SMOOTH STEP
0.0, 0.0, 0.03, 1.0
*STEP, NAME=PENETRATION
*DYNAMIC, EXPLICIT
, 0.03
*FIXED MASS SCALING, DT=2.0e-7, TYPE=BELOW MIN
*BOUNDARY, AMPLITUDE=PUSH
NREF, 2, 2, -1200.0
*CONTACT
*CONTACT INCLUSIONS, ALL EXTERIOR
*CONTACT INCLUSIONS
NEEDLE, SKIN_SURF
*CONTACT PROPERTY ASSIGNMENT
 ,  , IPROP
*OUTPUT, FIELD, NUMBER INTERVAL=30
*ELEMENT OUTPUT, ELSET=SKIN_ALL
S, LE, SDV, STATUS
*ELEMENT OUTPUT, ELSET=NEEDLE_EL
S, LE
*NODE OUTPUT
U, V
*OUTPUT, HISTORY, TIME INTERVAL=1.0e-4
*NODE OUTPUT, NSET=NREF
U2, V2, RF2
*ENERGY OUTPUT
ALLIE, ALLKE, ALLSE, ALLWK
*END STEP
