*HEADING
[15] Deformable thick needle + cohesive coring incision (no deletion)
Skin: 3-layer built-in Neo-Hookean; r=50 um: COHAX4 ; Units um,uN,MPa,s
*NODE
1, 0.0000, 0.0000
2, 5.0000, 0.0000
3, 10.0000, 0.0000
4, 15.0000, 0.0000
5, 20.0000, 0.0000
6, 25.0000, 0.0000
7, 30.0000, 0.0000
8, 35.0000, 0.0000
9, 40.0000, 0.0000
10, 45.0000, 0.0000
11, 50.0000, 0.0000
10001, 0.0000, 130.8745
10002, 5.0000, 130.8745
10003, 10.0000, 130.8745
10004, 15.0000, 130.8745
10005, 20.0000, 130.8745
10006, 25.0000, 130.8745
10007, 30.0000, 130.8745
10008, 35.0000, 130.8745
10009, 40.0000, 130.8745
** ... 1096 like lines cut
*ELEMENT, TYPE=CAX4R
1, 1, 2, 10002, 10001
2, 2, 3, 10003, 10002
3, 3, 4, 10004, 10003
4, 4, 5, 10005, 10004
5, 5, 6, 10006, 10005
6, 6, 7, 10007, 10006
7, 7, 8, 10008, 10007
8, 8, 9, 10009, 10008
9, 9, 10, 10010, 10009
10, 10, 11, 10011, 10010
11, 5000000, 5000001, 5010001, 5010000
12, 5000001, 5000002, 5010002, 5010001
13, 5000002, 5000003, 5010003, 5010002
14, 5000003, 5000004, 5010004, 5010003
15, 5000004, 5000005, 5010005, 5010004
16, 5000005, 5000006, 5010006, 5010005
17, 5000006, 5000007, 5010007, 5010006
18, 5000007, 5000008, 5010008, 5010007
19, 5000008, 5000009, 5010009, 5010008
20, 5000009, 5000010, 5010010, 5010009
** ... 1000 like lines cut
*ELEMENT, TYPE=COHAX4
1021, 11, 10011, 5010000, 5000000
1022, 10011, 20011, 5020000, 5010000
1023, 20011, 30011, 5030000, 5020000
1024, 30011, 40011, 5040000, 5030000
1025, 40011, 50011, 5050000, 5040000
1026, 50011, 60011, 5060000, 5050000
1027, 60011, 70011, 5070000, 5060000
1028, 70011, 80011, 5080000, 5070000
1029, 80011, 90011, 5090000, 5080000
1030, 90011, 100011, 5100000, 5090000
1031, 100011, 110011, 5110000, 5100000
1032, 110011, 120011, 5120000, 5110000
1033, 120011, 130011, 5130000, 5120000
1034, 130011, 140011, 5140000, 5130000
1035, 140011, 150011, 5150000, 5140000
1036, 150011, 160011, 5160000, 5150000
1037, 160011, 170011, 5170000, 5160000
1038, 170011, 180011, 5180000, 5170000
1039, 180011, 190011, 5190000, 5180000
1040, 190011, 200011, 5200000, 5190000
** ... 10 like lines cut
*ELSET, ELSET=STRATUM
749, 750, 751, 752, 753, 754, 755, 756, 757, 758, 759, 760
761, 762, 763, 764, 765, 766, 767, 768, 769, 770, 771, 772
773, 774, 775, 776, 777, 778, 779, 780, 781, 782, 783, 784
785, 786, 787, 788, 789, 790, 791, 792, 793, 794, 795, 796
797, 798, 799, 800, 801, 802, 803, 804, 805, 806, 807, 808
809, 810, 811, 812, 813, 814, 815, 816, 817, 818, 819, 820
821, 822, 823, 824, 825, 826, 827, 828, 829, 830, 831, 832
833, 834, 835, 836, 837, 838, 839, 840, 841, 842, 843, 844
845, 846, 847, 848, 849, 850, 851, 852, 853, 854, 855, 856
857, 858, 859, 860, 861, 862, 863, 864, 865, 866, 867, 868
869, 870, 871, 872, 873, 874, 875, 876, 877, 878, 879, 880
881, 882, 883, 884, 885, 886, 887, 888, 889, 890, 891, 892
893, 894, 895, 896, 897, 898, 899, 900, 901, 902, 903, 904
905, 906, 907, 908, 909, 910, 911, 912, 913, 914, 915, 916
917, 918, 919, 920, 921, 922, 923, 924, 925, 926, 927, 928
929, 930, 931, 932, 933, 934, 935, 936, 937, 938, 939, 940
941, 942, 943, 944, 945, 946, 947, 948, 949, 950, 951, 952
953, 954, 955, 956, 957, 958, 959, 960, 961, 962, 963, 964
965, 966, 967, 968, 969, 970, 971, 972, 973, 974, 975, 976
977, 978, 979, 980, 981, 982, 983, 984, 985, 986, 987, 988
989, 990, 991, 992, 993, 994, 995, 996, 997, 998, 999, 1000
1001, 1002, 1003, 1004, 1005, 1006, 1007, 1008, 1009, 1010, 1011, 1012
1013, 1014, 1015, 1016, 1017, 1018, 1019, 1020
*ELSET, ELSET=EPIDERMIS
477, 478, 479, 480, 481, 482, 483, 484, 485, 486, 487, 488
489, 490, 491, 492, 493, 494, 495, 496, 497, 498, 499, 500
501, 502, 503, 504, 505, 506, 507, 508, 509, 510, 511, 512
513, 514, 515, 516, 517, 518, 519, 520, 521, 522, 523, 524
525, 526, 527, 528, 529, 530, 531, 532, 533, 534, 535, 536
537, 538, 539, 540, 541, 542, 543, 544, 545, 546, 547, 548
549, 550, 551, 552, 553, 554, 555, 556, 557, 558, 559, 560
561, 562, 563, 564, 565, 566, 567, 568, 569, 570, 571, 572
573, 574, 575, 576, 577, 578, 579, 580, 581, 582, 583, 584
585, 586, 587, 588, 589, 590, 591, 592, 593, 594, 595, 596
597, 598, 599, 600, 601, 602, 603, 604, 605, 606, 607, 608
609, 610, 611, 612, 613, 614, 615, 616, 617, 618, 619, 620
621, 622, 623, 624, 625, 626, 627, 628, 629, 630, 631, 632
633, 634, 635, 636, 637, 638, 639, 640, 641, 642, 643, 644
645, 646, 647, 648, 649, 650, 651, 652, 653, 654, 655, 656
657, 658, 659, 660, 661, 662, 663, 664, 665, 666, 667, 668
669, 670, 671, 672, 673, 674, 675, 676, 677, 678, 679, 680
681, 682, 683, 684, 685, 686, 687, 688, 689, 690, 691, 692
693, 694, 695, 696, 697, 698, 699, 700, 701, 702, 703, 704
705, 706, 707, 708, 709, 710, 711, 712, 713, 714, 715, 716
717, 718, 719, 720, 721, 722, 723, 724, 725, 726, 727, 728
729, 730, 731, 732, 733, 734, 735, 736, 737, 738, 739, 740
741, 742, 743, 744, 745, 746, 747, 748
*ELSET, ELSET=DERMIS
1, 2, 3, 4, 5, 6, 7, 8, 9, 10, 11, 12
13, 14, 15, 16, 17, 18, 19, 20, 21, 22, 23, 24
25, 26, 27, 28, 29, 30, 31, 32, 33, 34, 35, 36
37, 38, 39, 40, 41, 42, 43, 44, 45, 46, 47, 48
49, 50, 51, 52, 53, 54, 55, 56, 57, 58, 59, 60
61, 62, 63, 64, 65, 66, 67, 68, 69, 70, 71, 72
73, 74, 75, 76, 77, 78, 79, 80, 81, 82, 83, 84
85, 86, 87, 88, 89, 90, 91, 92, 93, 94, 95, 96
97, 98, 99, 100, 101, 102, 103, 104, 105, 106, 107, 108
109, 110, 111, 112, 113, 114, 115, 116, 117, 118, 119, 120
121, 122, 123, 124, 125, 126, 127, 128, 129, 130, 131, 132
133, 134, 135, 136, 137, 138, 139, 140, 141, 142, 143, 144
145, 146, 147, 148, 149, 150, 151, 152, 153, 154, 155, 156
157, 158, 159, 160, 161, 162, 163, 164, 165, 166, 167, 168
169, 170, 171, 172, 173, 174, 175, 176, 177, 178, 179, 180
181, 182, 183, 184, 185, 186, 187, 188, 189, 190, 191, 192
193, 194, 195, 196, 197, 198, 199, 200, 201, 202, 203, 204
205, 206, 207, 208, 209, 210, 211, 212, 213, 214, 215, 216
217, 218, 219, 220, 221, 222, 223, 224, 225, 226, 227, 228
229, 230, 231, 232, 233, 234, 235, 236, 237, 238, 239, 240
** ... 20 like lines cut
*ELSET, ELSET=BULK
STRATUM, EPIDERMIS, DERMIS
*ELSET, ELSET=CORE
1, 2, 3, 4, 5, 6, 7, 8, 9, 10, 35, 36
37, 38, 39, 40, 41, 42, 43, 44, 69, 70, 71, 72
73, 74, 75, 76, 77, 78, 103, 104, 105, 106, 107, 108
109, 110, 111, 112, 137, 138, 139, 140, 141, 142, 143, 144
145, 146, 171, 172, 173, 174, 175, 176, 177, 178, 179, 180
205, 206, 207, 208, 209, 210, 211, 212, 213, 214, 239, 240
241, 242, 243, 244, 245, 246, 247, 248, 273, 274, 275, 276
277, 278, 279, 280, 281, 282, 307, 308, 309, 310, 311, 312
313, 314, 315, 316, 341, 342, 343, 344, 345, 346, 347, 348
349, 350, 375, 376, 377, 378, 379, 380, 381, 382, 383, 384
409, 410, 411, 412, 413, 414, 415, 416, 417, 418, 443, 444
445, 446, 447, 448, 449, 450, 451, 452, 477, 478, 479, 480
481, 482, 483, 484, 485, 486, 511, 512, 513, 514, 515, 516
517, 518, 519, 520, 545, 546, 547, 548, 549, 550, 551, 552
553, 554, 579, 580, 581, 582, 583, 584, 585, 586, 587, 588
613, 614, 615, 616, 617, 618, 619, 620, 621, 622, 647, 648
649, 650, 651, 652, 653, 654, 655, 656, 681, 682, 683, 684
685, 686, 687, 688, 689, 690, 715, 716, 717, 718, 719, 720
721, 722, 723, 724, 749, 750, 751, 752, 753, 754, 755, 756
757, 758, 783, 784, 785, 786, 787, 788, 789, 790, 791, 792
** ... 5 like lines cut
*ELSET, ELSET=COH, GENERATE
1021, 1050, 1
*SURFACE, TYPE=ELEMENT, NAME=SKIN_SURF
BULK,
*NSET, NSET=NBOT
1, 2, 3, 4, 5, 6, 7, 8, 9, 10, 11, 5000000
5000001, 5000002, 5000003, 5000004, 5000005, 5000006, 5000007, 5000008, 5000009, 5000010, 5000011, 5000012
5000013, 5000014, 5000015, 5000016, 5000017, 5000018, 5000019, 5000020, 5000021, 5000022, 5000023, 5000024
*NSET, NSET=NAXIS, GENERATE
1, 300001, 10000
*NSET, NSET=NRIGHT, GENERATE
5000024, 5300024, 10000
**
** --- Deformable needle wall (CAX4R): bore 30, tip 50, shaft 150
*NODE
6000000, 30.0000, 1550.0000
6000001, 35.0000, 1550.0000
6000002, 40.0000, 1550.0000
6000003, 45.0000, 1550.0000
6000004, 50.0000, 1550.0000
6001000, 30.0000, 1555.0000
6001001, 35.4167, 1555.0000
6001002, 40.8333, 1555.0000
6001003, 46.2500, 1555.0000
6001004, 51.6667, 1555.0000
6002000, 30.0000, 1560.7500
6002001, 35.8958, 1560.7500
6002002, 41.7917, 1560.7500
6002003, 47.6875, 1560.7500
6002004, 53.5833, 1560.7500
6003000, 30.0000, 1567.3625
6003001, 36.4469, 1567.3625
6003002, 42.8937, 1567.3625
6003003, 49.3406, 1567.3625
6003004, 55.7875, 1567.3625
** ... 286 like lines cut
*NSET, NSET=NREF
9999,
*ELEMENT, TYPE=CAX4R
1051, 6000000, 6000001, 6001001, 6001000
1052, 6000001, 6000002, 6001002, 6001001
1053, 6000002, 6000003, 6001003, 6001002
1054, 6000003, 6000004, 6001004, 6001003
1055, 6001000, 6001001, 6002001, 6002000
1056, 6001001, 6001002, 6002002, 6002001
1057, 6001002, 6001003, 6002003, 6002002
1058, 6001003, 6001004, 6002004, 6002003
1059, 6002000, 6002001, 6003001, 6003000
1060, 6002001, 6002002, 6003002, 6003001
1061, 6002002, 6002003, 6003003, 6003002
1062, 6002003, 6002004, 6003004, 6003003
1063, 6003000, 6003001, 6004001, 6004000
1064, 6003001, 6003002, 6004002, 6004001
1065, 6003002, 6003003, 6004003, 6004002
1066, 6003003, 6003004, 6004004, 6004003
1067, 6004000, 6004001, 6005001, 6005000
1068, 6004001, 6004002, 6005002, 6005001
1069, 6004002, 6004003, 6005003, 6005002
1070, 6004003, 6004004, 6005004, 6005003
** ... 220 like lines cut
*ELSET, ELSET=NEEDLE_EL, GENERATE
1051, 1290, 1
*SURFACE, TYPE=ELEMENT, NAME=NEEDLE
NEEDLE_EL,
*NSET, NSET=NDLTOP
6060000, 6060001, 6060002, 6060003, 6060004
*SURFACE, TYPE=NODE, NAME=NDLTOP_S
NDLTOP,
*MATERIAL, NAME=NEEDLE_MAT
*DENSITY
7.9e-15,
*ELASTIC
2e+05, 0.3
*SOLID SECTION, ELSET=NEEDLE_EL, MATERIAL=NEEDLE_MAT
*MATERIAL, NAME=MAT_STRATUM
*DENSITY
1.2e-15,
*HYPERELASTIC, NEO HOOKE
1.0, 0.02
*MATERIAL, NAME=MAT_EPIDERMIS
*DENSITY
1.1e-15,
*HYPERELASTIC, NEO HOOKE
0.1, 0.1
*MATERIAL, NAME=MAT_DERMIS
*DENSITY
1.1e-15,
*HYPERELASTIC, NEO HOOKE
0.02, 1.0
*SECTION CONTROLS, NAME=SKINCTRL, DISTORTION CONTROL=YES, HOURGLASS=ENHANCED
*SOLID SECTION, ELSET=STRATUM, MATERIAL=MAT_STRATUM, CONTROLS=SKINCTRL
*SOLID SECTION, ELSET=EPIDERMIS, MATERIAL=MAT_EPIDERMIS, CONTROLS=SKINCTRL
*SOLID SECTION, ELSET=DERMIS, MATERIAL=MAT_DERMIS, CONTROLS=SKINCTRL
*MATERIAL, NAME=COHMAT
*DENSITY
1.1e-15,
*ELASTIC, TYPE=TRACTION
4, 4, 4
*DAMAGE INITIATION, CRITERION=MAXS
2, 2, 2
*DAMAGE EVOLUTION, TYPE=ENERGY
5,
*COHESIVE SECTION, ELSET=COH, MATERIAL=COHMAT, RESPONSE=TRACTION SEPARATION, THICKNESS=SPECIFIED
1,
*COUPLING, CONSTRAINT NAME=NDL_GRIP, REF NODE=9999, SURFACE=NDLTOP_S
*KINEMATIC
1, 2
*SURFACE INTERACTION, NAME=IPROP
*FRICTION
0.1,
*SURFACE BEHAVIOR, PRESSURE-OVERCLOSURE=HARD
*BOUNDARY
NBOT, 2, 2
NAXIS, 1, 1
NRIGHT, 1, 1
NREF, 1, 1
NREF, 6, 6
*AMPLITUDE, NAME=PUSH, DEFINITION=SMOOTH STEP
0.0, 0.0, 0.03, 1.0
*STEP, NAME=PENETRATION
*DYNAMIC, EXPLICIT
, 0.03
*FIXED MASS SCALING, DT=2.0e-7, TYPE=BELOW MIN
*ADAPTIVE MESH, ELSET=CORE, FREQUENCY=5, MESH SWEEPS=3
*BOUNDARY, AMPLITUDE=PUSH
NREF, 2, 2, -300.0
*CONTACT
*CONTACT INCLUSIONS, ALL EXTERIOR
*CONTACT INCLUSIONS
NEEDLE, SKIN_SURF
*CONTACT PROPERTY ASSIGNMENT
 ,  , IPROP
*OUTPUT, FIELD, NUMBER INTERVAL=30
*ELEMENT OUTPUT, ELSET=BULK
S, LE
*ELEMENT OUTPUT, ELSET=COH
SDEG, STATUS
*ELEMENT OUTPUT, ELSET=NEEDLE_EL
S, LE
*NODE OUTPUT
U, V
*OUTPUT, HISTORY, TIME INTERVAL=1.0e-4
*NODE OUTPUT, NSET=NREF
U2, V2, RF2
*ENERGY OUTPUT
ALLIE, ALLKE, ALLSE, ALLDMD
*END STEP
