*HEADING
[15] Bifurcated skin: core(damage+deletion) / outer(no deletion)
needle deformable ; r=35 um cohesive COHAX4 ; um,uN,MPa,s ; user=vumat
*NODE
1, 0.0000, 0.0000
2, 3.5000, 0.0000
3, 7.0000, 0.0000
4, 10.5000, 0.0000
5, 14.0000, 0.0000
6, 17.5000, 0.0000
7, 21.0000, 0.0000
8, 24.5000, 0.0000
9, 28.0000, 0.0000
10, 31.5000, 0.0000
11, 35.0000, 0.0000
10001, 0.0000, 130.8745
10002, 3.5000, 130.8745
10003, 7.0000, 130.8745
10004, 10.5000, 130.8745
10005, 14.0000, 130.8745
10006, 17.5000, 130.8745
10007, 21.0000, 130.8745
10008, 24.5000, 130.8745
10009, 28.0000, 130.8745
** ... 1462 like lines cut
*ELEMENT, TYPE=CAX4R
1, 1, 2, 10002, 10001
2, 2, 3, 10003, 10002
3, 3, 4, 10004, 10003
4, 4, 5, 10005, 10004
5, 5, 6, 10006, 10005
6, 6, 7, 10007, 10006
7, 7, 8, 10008, 10007
8, 8, 9, 10009, 10008
9, 9, 10, 10010, 10009
10, 10, 11, 10011, 10010
11, 5000000, 5000001, 5010001, 5010000
12, 5000001, 5000002, 5010002, 5010001
13, 5000002, 5000003, 5010003, 5010002
14, 5000003, 5000004, 5010004, 5010003
15, 5000004, 5000005, 5010005, 5010004
16, 5000005, 5000006, 5010006, 5010005
17, 5000006, 5000007, 5010007, 5010006
18, 5000007, 5000008, 5010008, 5010007
19, 5000008, 5000009, 5010009, 5010008
20, 5000009, 5000010, 5010010, 5010009
** ... 1348 like lines cut
*ELEMENT, TYPE=COHAX4
1369, 11, 10011, 5010000, 5000000
1370, 10011, 20011, 5020000, 5010000
1371, 20011, 30011, 5030000, 5020000
1372, 30011, 40011, 5040000, 5030000
1373, 40011, 50011, 5050000, 5040000
1374, 50011, 60011, 5060000, 5050000
1375, 60011, 70011, 5070000, 5060000
1376, 70011, 80011, 5080000, 5070000
1377, 80011, 90011, 5090000, 5080000
1378, 90011, 100011, 5100000, 5090000
1379, 100011, 110011, 5110000, 5100000
1380, 110011, 120011, 5120000, 5110000
1381, 120011, 130011, 5130000, 5120000
1382, 130011, 140011, 5140000, 5130000
1383, 140011, 150011, 5150000, 5140000
1384, 150011, 160011, 5160000, 5150000
1385, 160011, 170011, 5170000, 5160000
1386, 170011, 180011, 5180000, 5170000
1387, 180011, 190011, 5190000, 5180000
1388, 190011, 200011, 5200000, 5190000
** ... 18 like lines cut
*ELSET, ELSET=C_STRATUM
937, 938, 939, 940, 941, 942, 943, 944, 945, 946, 973, 974
975, 976, 977, 978, 979, 980, 981, 982, 1009, 1010, 1011, 1012
1013, 1014, 1015, 1016, 1017, 1018, 1045, 1046, 1047, 1048, 1049, 1050
1051, 1052, 1053, 1054, 1081, 1082, 1083, 1084, 1085, 1086, 1087, 1088
1089, 1090, 1117, 1118, 1119, 1120, 1121, 1122, 1123, 1124, 1125, 1126
1153, 1154, 1155, 1156, 1157, 1158, 1159, 1160, 1161, 1162, 1189, 1190
1191, 1192, 1193, 1194, 1195, 1196, 1197, 1198, 1225, 1226, 1227, 1228
1229, 1230, 1231, 1232, 1233, 1234, 1261, 1262, 1263, 1264, 1265, 1266
1267, 1268, 1269, 1270, 1297, 1298, 1299, 1300, 1301, 1302, 1303, 1304
1305, 1306, 1333, 1334, 1335, 1336, 1337, 1338, 1339, 1340, 1341, 1342
*ELSET, ELSET=O_STRATUM
947, 948, 949, 950, 951, 952, 953, 954, 955, 956, 957, 958
959, 960, 961, 962, 963, 964, 965, 966, 967, 968, 969, 970
971, 972, 983, 984, 985, 986, 987, 988, 989, 990, 991, 992
993, 994, 995, 996, 997, 998, 999, 1000, 1001, 1002, 1003, 1004
1005, 1006, 1007, 1008, 1019, 1020, 1021, 1022, 1023, 1024, 1025, 1026
1027, 1028, 1029, 1030, 1031, 1032, 1033, 1034, 1035, 1036, 1037, 1038
1039, 1040, 1041, 1042, 1043, 1044, 1055, 1056, 1057, 1058, 1059, 1060
1061, 1062, 1063, 1064, 1065, 1066, 1067, 1068, 1069, 1070, 1071, 1072
1073, 1074, 1075, 1076, 1077, 1078, 1079, 1080, 1091, 1092, 1093, 1094
1095, 1096, 1097, 1098, 1099, 1100, 1101, 1102, 1103, 1104, 1105, 1106
1107, 1108, 1109, 1110, 1111, 1112, 1113, 1114, 1115, 1116, 1127, 1128
1129, 1130, 1131, 1132, 1133, 1134, 1135, 1136, 1137, 1138, 1139, 1140
1141, 1142, 1143, 1144, 1145, 1146, 1147, 1148, 1149, 1150, 1151, 1152
1163, 1164, 1165, 1166, 1167, 1168, 1169, 1170, 1171, 1172, 1173, 1174
1175, 1176, 1177, 1178, 1179, 1180, 1181, 1182, 1183, 1184, 1185, 1186
1187, 1188, 1199, 1200, 1201, 1202, 1203, 1204, 1205, 1206, 1207, 1208
1209, 1210, 1211, 1212, 1213, 1214, 1215, 1216, 1217, 1218, 1219, 1220
1221, 1222, 1223, 1224, 1235, 1236, 1237, 1238, 1239, 1240, 1241, 1242
1243, 1244, 1245, 1246, 1247, 1248, 1249, 1250, 1251, 1252, 1253, 1254
1255, 1256, 1257, 1258, 1259, 1260, 1271, 1272, 1273, 1274, 1275, 1276
** ... 6 like lines cut
*ELSET, ELSET=C_EPIDERMIS
505, 506, 507, 508, 509, 510, 511, 512, 513, 514, 541, 542
543, 544, 545, 546, 547, 548, 549, 550, 577, 578, 579, 580
581, 582, 583, 584, 585, 586, 613, 614, 615, 616, 617, 618
619, 620, 621, 622, 649, 650, 651, 652, 653, 654, 655, 656
657, 658, 685, 686, 687, 688, 689, 690, 691, 692, 693, 694
721, 722, 723, 724, 725, 726, 727, 728, 729, 730, 757, 758
759, 760, 761, 762, 763, 764, 765, 766, 793, 794, 795, 796
797, 798, 799, 800, 801, 802, 829, 830, 831, 832, 833, 834
835, 836, 837, 838, 865, 866, 867, 868, 869, 870, 871, 872
873, 874, 901, 902, 903, 904, 905, 906, 907, 908, 909, 910
*ELSET, ELSET=O_EPIDERMIS
515, 516, 517, 518, 519, 520, 521, 522, 523, 524, 525, 526
527, 528, 529, 530, 531, 532, 533, 534, 535, 536, 537, 538
539, 540, 551, 552, 553, 554, 555, 556, 557, 558, 559, 560
561, 562, 563, 564, 565, 566, 567, 568, 569, 570, 571, 572
573, 574, 575, 576, 587, 588, 589, 590, 591, 592, 593, 594
595, 596, 597, 598, 599, 600, 601, 602, 603, 604, 605, 606
607, 608, 609, 610, 611, 612, 623, 624, 625, 626, 627, 628
629, 630, 631, 632, 633, 634, 635, 636, 637, 638, 639, 640
641, 642, 643, 644, 645, 646, 647, 648, 659, 660, 661, 662
663, 664, 665, 666, 667, 668, 669, 670, 671, 672, 673, 674
675, 676, 677, 678, 679, 680, 681, 682, 683, 684, 695, 696
697, 698, 699, 700, 701, 702, 703, 704, 705, 706, 707, 708
709, 710, 711, 712, 713, 714, 715, 716, 717, 718, 719, 720
731, 732, 733, 734, 735, 736, 737, 738, 739, 740, 741, 742
743, 744, 745, 746, 747, 748, 749, 750, 751, 752, 753, 754
755, 756, 767, 768, 769, 770, 771, 772, 773, 774, 775, 776
777, 778, 779, 780, 781, 782, 783, 784, 785, 786, 787, 788
789, 790, 791, 792, 803, 804, 805, 806, 807, 808, 809, 810
811, 812, 813, 814, 815, 816, 817, 818, 819, 820, 821, 822
823, 824, 825, 826, 827, 828, 839, 840, 841, 842, 843, 844
** ... 6 like lines cut
*ELSET, ELSET=C_DERMIS
1, 2, 3, 4, 5, 6, 7, 8, 9, 10, 37, 38
39, 40, 41, 42, 43, 44, 45, 46, 73, 74, 75, 76
77, 78, 79, 80, 81, 82, 109, 110, 111, 112, 113, 114
115, 116, 117, 118, 145, 146, 147, 148, 149, 150, 151, 152
153, 154, 181, 182, 183, 184, 185, 186, 187, 188, 189, 190
217, 218, 219, 220, 221, 222, 223, 224, 225, 226, 253, 254
255, 256, 257, 258, 259, 260, 261, 262, 289, 290, 291, 292
293, 294, 295, 296, 297, 298, 325, 326, 327, 328, 329, 330
331, 332, 333, 334, 361, 362, 363, 364, 365, 366, 367, 368
369, 370, 397, 398, 399, 400, 401, 402, 403, 404, 405, 406
433, 434, 435, 436, 437, 438, 439, 440, 441, 442, 469, 470
471, 472, 473, 474, 475, 476, 477, 478
*ELSET, ELSET=O_DERMIS
11, 12, 13, 14, 15, 16, 17, 18, 19, 20, 21, 22
23, 24, 25, 26, 27, 28, 29, 30, 31, 32, 33, 34
35, 36, 47, 48, 49, 50, 51, 52, 53, 54, 55, 56
57, 58, 59, 60, 61, 62, 63, 64, 65, 66, 67, 68
69, 70, 71, 72, 83, 84, 85, 86, 87, 88, 89, 90
91, 92, 93, 94, 95, 96, 97, 98, 99, 100, 101, 102
103, 104, 105, 106, 107, 108, 119, 120, 121, 122, 123, 124
125, 126, 127, 128, 129, 130, 131, 132, 133, 134, 135, 136
137, 138, 139, 140, 141, 142, 143, 144, 155, 156, 157, 158
159, 160, 161, 162, 163, 164, 165, 166, 167, 168, 169, 170
171, 172, 173, 174, 175, 176, 177, 178, 179, 180, 191, 192
193, 194, 195, 196, 197, 198, 199, 200, 201, 202, 203, 204
205, 206, 207, 208, 209, 210, 211, 212, 213, 214, 215, 216
227, 228, 229, 230, 231, 232, 233, 234, 235, 236, 237, 238
239, 240, 241, 242, 243, 244, 245, 246, 247, 248, 249, 250
251, 252, 263, 264, 265, 266, 267, 268, 269, 270, 271, 272
273, 274, 275, 276, 277, 278, 279, 280, 281, 282, 283, 284
285, 286, 287, 288, 299, 300, 301, 302, 303, 304, 305, 306
307, 308, 309, 310, 311, 312, 313, 314, 315, 316, 317, 318
319, 320, 321, 322, 323, 324, 335, 336, 337, 338, 339, 340
** ... 11 like lines cut
*ELSET, ELSET=CORE
C_STRATUM, C_EPIDERMIS, C_DERMIS
*ELSET, ELSET=OUTER
O_STRATUM, O_EPIDERMIS, O_DERMIS
*ELSET, ELSET=BULK
CORE, OUTER
*ELSET, ELSET=COH, GENERATE
1369, 1406, 1
*SURFACE, TYPE=ELEMENT, NAME=SKIN_SURF
BULK,
*NSET, NSET=NBOT
1, 2, 3, 4, 5, 6, 7, 8, 9, 10, 11, 5000000
5000001, 5000002, 5000003, 5000004, 5000005, 5000006, 5000007, 5000008, 5000009, 5000010, 5000011, 5000012
5000013, 5000014, 5000015, 5000016, 5000017, 5000018, 5000019, 5000020, 5000021, 5000022, 5000023, 5000024
5000025, 5000026
*NSET, NSET=NAXIS, GENERATE
1, 380001, 10000
*NSET, NSET=NRIGHT, GENERATE
5000026, 5380026, 10000
**
** --- Needle: CAX4R solid, rigid body (axis-centered, blunt tip) ---
*NODE
6000000, 0.0000, 1550.0000
6000001, 0.5000, 1550.0000
6000002, 1.0000, 1550.0000
6000003, 1.5000, 1550.0000
6000004, 2.0000, 1550.0000
6000005, 2.5000, 1550.0000
6000006, 3.0000, 1550.0000
6000007, 3.5000, 1550.0000
6000008, 4.0000, 1550.0000
6000009, 4.5000, 1550.0000
6000010, 5.0000, 1550.0000
6001000, 0.0000, 1553.5000
6001001, 0.5875, 1553.5000
6001002, 1.1750, 1553.5000
6001003, 1.7625, 1553.5000
6001004, 2.3500, 1553.5000
6001005, 2.9375, 1553.5000
6001006, 3.5250, 1553.5000
6001007, 4.1125, 1553.5000
6001008, 4.7000, 1553.5000
** ... 608 like lines cut
*NSET, NSET=NREF
9999,
*ELEMENT, TYPE=CAX4R
1407, 6000000, 6000001, 6001001, 6001000
1408, 6000001, 6000002, 6001002, 6001001
1409, 6000002, 6000003, 6001003, 6001002
1410, 6000003, 6000004, 6001004, 6001003
1411, 6000004, 6000005, 6001005, 6001004
1412, 6000005, 6000006, 6001006, 6001005
1413, 6000006, 6000007, 6001007, 6001006
1414, 6000007, 6000008, 6001008, 6001007
1415, 6000008, 6000009, 6001009, 6001008
1416, 6000009, 6000010, 6001010, 6001009
1417, 6001000, 6001001, 6002001, 6002000
1418, 6001001, 6001002, 6002002, 6002001
1419, 6001002, 6001003, 6002003, 6002002
1420, 6001003, 6001004, 6002004, 6002003
1421, 6001004, 6001005, 6002005, 6002004
1422, 6001005, 6001006, 6002006, 6002005
1423, 6001006, 6001007, 6002007, 6002006
1424, 6001007, 6001008, 6002008, 6002007
1425, 6001008, 6001009, 6002009, 6002008
1426, 6001009, 6001010, 6002010, 6002009
** ... 540 like lines cut
*ELSET, ELSET=NEEDLE_EL, GENERATE
1407, 1966, 1
*SURFACE, TYPE=ELEMENT, NAME=NEEDLE
NEEDLE_EL,
*RIGID BODY, ELSET=NEEDLE_EL, REF NODE=NREF
*MATERIAL, NAME=NEEDLE_MAT
*DENSITY
7.9e-15,
*ELASTIC
2e+05, 0.3
*SOLID SECTION, ELSET=NEEDLE_EL, MATERIAL=NEEDLE_MAT
*MATERIAL, NAME=MATC_STRATUM
*DENSITY
1.2e-15,
*DAMPING, ALPHA=5e+04
*USER MATERIAL, CONSTANTS=4
1.0, 0.02, 1.2, 1.5
*DEPVAR, DELETE=1
4
1, DELFLAG, deletion flag
2, LAMMAX, max principal stretch
3, DAMAGE, damage variable
4, JVOL, relative volume
*MATERIAL, NAME=MATC_EPIDERMIS
*DENSITY
1.1e-15,
*DAMPING, ALPHA=5e+04
*USER MATERIAL, CONSTANTS=4
0.1, 0.1, 1.4, 1.9
*DEPVAR, DELETE=1
4
1, DELFLAG, deletion flag
2, LAMMAX, max principal stretch
3, DAMAGE, damage variable
4, JVOL, relative volume
*MATERIAL, NAME=MATC_DERMIS
*DENSITY
1.1e-15,
*DAMPING, ALPHA=5e+04
*USER MATERIAL, CONSTANTS=4
0.02, 1.0, 1.6, 2.5
*DEPVAR, DELETE=1
4
1, DELFLAG, deletion flag
2, LAMMAX, max principal stretch
3, DAMAGE, damage variable
4, JVOL, relative volume
*MATERIAL, NAME=MATO_STRATUM
*DENSITY
1.2e-15,
*DAMPING, ALPHA=5e+04
*HYPERELASTIC, NEO HOOKE
1.0, 0.02
*MATERIAL, NAME=MATO_EPIDERMIS
*DENSITY
1.1e-15,
*DAMPING, ALPHA=5e+04
*HYPERELASTIC, NEO HOOKE
0.1, 0.1
*MATERIAL, NAME=MATO_DERMIS
*DENSITY
1.1e-15,
*DAMPING, ALPHA=5e+04
*HYPERELASTIC, NEO HOOKE
0.02, 1.0
*SECTION CONTROLS, NAME=CORECTRL, DISTORTION CONTROL=YES, HOURGLASS=ENHANCED
*SOLID SECTION, ELSET=C_STRATUM, MATERIAL=MATC_STRATUM, CONTROLS=CORECTRL
*SOLID SECTION, ELSET=C_EPIDERMIS, MATERIAL=MATC_EPIDERMIS, CONTROLS=CORECTRL
*SOLID SECTION, ELSET=C_DERMIS, MATERIAL=MATC_DERMIS, CONTROLS=CORECTRL
*SOLID SECTION, ELSET=O_STRATUM, MATERIAL=MATO_STRATUM
*SOLID SECTION, ELSET=O_EPIDERMIS, MATERIAL=MATO_EPIDERMIS
*SOLID SECTION, ELSET=O_DERMIS, MATERIAL=MATO_DERMIS
*MATERIAL, NAME=COHMAT
*DENSITY
1.1e-15,
*ELASTIC, TYPE=TRACTION
4, 4, 4
*DAMAGE INITIATION, CRITERION=MAXS
2, 2, 2
*DAMAGE EVOLUTION, TYPE=ENERGY
5,
*COHESIVE SECTION, ELSET=COH, MATERIAL=COHMAT, RESPONSE=TRACTION SEPARATION, THICKNESS=SPECIFIED
1,
*SURFACE INTERACTION, NAME=IPROP
*FRICTION
0.1,
*SURFACE BEHAVIOR, PRESSURE-OVERCLOSURE=HARD
*CONTACT DAMPING, DEFINITION=CRITICAL DAMPING FRACTION
0.5,
*BOUNDARY
NBOT, 2, 2
NAXIS, 1, 1
NRIGHT, 1, 1
NREF, 1, 1
NREF, 6, 6
*AMPLITUDE, NAME=PUSH, DEFINITION=SMOOTH STEP
0.0, 0.0, 0.03, 1.0
*STEP, NAME=PENETRATION
*DYNAMIC, EXPLICIT
, 0.03
*FIXED MASS SCALING, DT=1e-07, TYPE=BELOW MIN
*BOUNDARY, AMPLITUDE=PUSH
NREF, 2, 2, -300.0
*CONTACT
*CONTACT INCLUSIONS, ALL EXTERIOR
*CONTACT INCLUSIONS
NEEDLE, SKIN_SURF
*CONTACT PROPERTY ASSIGNMENT
 ,  , IPROP
*OUTPUT, FIELD, NUMBER INTERVAL=30
*ELEMENT OUTPUT, ELSET=BULK
S, LE
*ELEMENT OUTPUT, ELSET=CORE
SDV, STATUS
*ELEMENT OUTPUT, ELSET=COH
SDEG, STATUS
*NODE OUTPUT
U, V
*OUTPUT, HISTORY, TIME INTERVAL=1.0e-4
*NODE OUTPUT, NSET=NREF
U2, V2, RF2
*ENERGY OUTPUT
ALLIE, ALLKE, ALLSE, ALLDMD
*END STEP
