*HEADING
[16] Needle puncture of skin (solid cone) - 3 layers
hyperelastic + cohesive + layer damage(deletion) ; Units um,uN,MPa,s
*NODE
1, 0.0000, 0.0000
2, 5.0000, 0.0000
3, 10.0000, 0.0000
4, 15.0000, 0.0000
5, 20.0000, 0.0000
6, 25.0000, 0.0000
7, 30.0000, 0.0000
8, 35.0000, 0.0000
9, 40.0000, 0.0000
10, 45.0000, 0.0000
11, 50.0000, 0.0000
12, 55.0000, 0.0000
13, 60.0000, 0.0000
14, 65.0000, 0.0000
15, 70.0000, 0.0000
16, 75.0000, 0.0000
17, 80.0000, 0.0000
18, 85.0000, 0.0000
19, 90.0000, 0.0000
20, 95.0000, 0.0000
** ... 2230 like lines cut
*ELEMENT, TYPE=CAX4R
1, 1, 2, 10002, 10001
2, 2, 3, 10003, 10002
3, 3, 4, 10004, 10003
4, 4, 5, 10005, 10004
5, 5, 6, 10006, 10005
6, 6, 7, 10007, 10006
7, 7, 8, 10008, 10007
8, 8, 9, 10009, 10008
9, 9, 10, 10010, 10009
10, 10, 11, 10011, 10010
11, 11, 12, 10012, 10011
12, 12, 13, 10013, 10012
13, 13, 14, 10014, 10013
14, 14, 15, 10015, 10014
15, 15, 16, 10016, 10015
16, 16, 17, 10017, 10016
17, 17, 18, 10018, 10017
18, 18, 19, 10019, 10018
19, 19, 20, 10020, 10019
20, 20, 21, 10021, 10020
** ... 2087 like lines cut
*ELEMENT, TYPE=COHAX4
2108, 21, 10021, 5010000, 5000000
2109, 10021, 20021, 5020000, 5010000
2110, 20021, 30021, 5030000, 5020000
2111, 30021, 40021, 5040000, 5030000
2112, 40021, 50021, 5050000, 5040000
2113, 50021, 60021, 5060000, 5050000
2114, 60021, 70021, 5070000, 5060000
2115, 70021, 80021, 5080000, 5070000
2116, 80021, 90021, 5090000, 5080000
2117, 90021, 100021, 5100000, 5090000
2118, 100021, 110021, 5110000, 5100000
2119, 110021, 120021, 5120000, 5110000
2120, 120021, 130021, 5130000, 5120000
2121, 130021, 140021, 5140000, 5130000
2122, 140021, 150021, 5150000, 5140000
2123, 150021, 160021, 5160000, 5150000
2124, 160021, 170021, 5170000, 5160000
2125, 170021, 180021, 5180000, 5170000
2126, 180021, 190021, 5190000, 5180000
2127, 190021, 200021, 5200000, 5190000
** ... 29 like lines cut
*ELSET, ELSET=EPIDERMIS
1678, 1679, 1680, 1681, 1682, 1683, 1684, 1685, 1686, 1687, 1688, 1689
1690, 1691, 1692, 1693, 1694, 1695, 1696, 1697, 1698, 1699, 1700, 1701
1702, 1703, 1704, 1705, 1706, 1707, 1708, 1709, 1710, 1711, 1712, 1713
1714, 1715, 1716, 1717, 1718, 1719, 1720, 1721, 1722, 1723, 1724, 1725
1726, 1727, 1728, 1729, 1730, 1731, 1732, 1733, 1734, 1735, 1736, 1737
1738, 1739, 1740, 1741, 1742, 1743, 1744, 1745, 1746, 1747, 1748, 1749
1750, 1751, 1752, 1753, 1754, 1755, 1756, 1757, 1758, 1759, 1760, 1761
1762, 1763, 1764, 1765, 1766, 1767, 1768, 1769, 1770, 1771, 1772, 1773
1774, 1775, 1776, 1777, 1778, 1779, 1780, 1781, 1782, 1783, 1784, 1785
1786, 1787, 1788, 1789, 1790, 1791, 1792, 1793, 1794, 1795, 1796, 1797
1798, 1799, 1800, 1801, 1802, 1803, 1804, 1805, 1806, 1807, 1808, 1809
1810, 1811, 1812, 1813, 1814, 1815, 1816, 1817, 1818, 1819, 1820, 1821
1822, 1823, 1824, 1825, 1826, 1827, 1828, 1829, 1830, 1831, 1832, 1833
1834, 1835, 1836, 1837, 1838, 1839, 1840, 1841, 1842, 1843, 1844, 1845
1846, 1847, 1848, 1849, 1850, 1851, 1852, 1853, 1854, 1855, 1856, 1857
1858, 1859, 1860, 1861, 1862, 1863, 1864, 1865, 1866, 1867, 1868, 1869
1870, 1871, 1872, 1873, 1874, 1875, 1876, 1877, 1878, 1879, 1880, 1881
1882, 1883, 1884, 1885, 1886, 1887, 1888, 1889, 1890, 1891, 1892, 1893
1894, 1895, 1896, 1897, 1898, 1899, 1900, 1901, 1902, 1903, 1904, 1905
1906, 1907, 1908, 1909, 1910, 1911, 1912, 1913, 1914, 1915, 1916, 1917
** ... 16 like lines cut
*ELSET, ELSET=DERMIS
1119, 1120, 1121, 1122, 1123, 1124, 1125, 1126, 1127, 1128, 1129, 1130
1131, 1132, 1133, 1134, 1135, 1136, 1137, 1138, 1139, 1140, 1141, 1142
1143, 1144, 1145, 1146, 1147, 1148, 1149, 1150, 1151, 1152, 1153, 1154
1155, 1156, 1157, 1158, 1159, 1160, 1161, 1162, 1163, 1164, 1165, 1166
1167, 1168, 1169, 1170, 1171, 1172, 1173, 1174, 1175, 1176, 1177, 1178
1179, 1180, 1181, 1182, 1183, 1184, 1185, 1186, 1187, 1188, 1189, 1190
1191, 1192, 1193, 1194, 1195, 1196, 1197, 1198, 1199, 1200, 1201, 1202
1203, 1204, 1205, 1206, 1207, 1208, 1209, 1210, 1211, 1212, 1213, 1214
1215, 1216, 1217, 1218, 1219, 1220, 1221, 1222, 1223, 1224, 1225, 1226
1227, 1228, 1229, 1230, 1231, 1232, 1233, 1234, 1235, 1236, 1237, 1238
1239, 1240, 1241, 1242, 1243, 1244, 1245, 1246, 1247, 1248, 1249, 1250
1251, 1252, 1253, 1254, 1255, 1256, 1257, 1258, 1259, 1260, 1261, 1262
1263, 1264, 1265, 1266, 1267, 1268, 1269, 1270, 1271, 1272, 1273, 1274
1275, 1276, 1277, 1278, 1279, 1280, 1281, 1282, 1283, 1284, 1285, 1286
1287, 1288, 1289, 1290, 1291, 1292, 1293, 1294, 1295, 1296, 1297, 1298
1299, 1300, 1301, 1302, 1303, 1304, 1305, 1306, 1307, 1308, 1309, 1310
1311, 1312, 1313, 1314, 1315, 1316, 1317, 1318, 1319, 1320, 1321, 1322
1323, 1324, 1325, 1326, 1327, 1328, 1329, 1330, 1331, 1332, 1333, 1334
1335, 1336, 1337, 1338, 1339, 1340, 1341, 1342, 1343, 1344, 1345, 1346
1347, 1348, 1349, 1350, 1351, 1352, 1353, 1354, 1355, 1356, 1357, 1358
** ... 27 like lines cut
*ELSET, ELSET=HYPODERMIS
1, 2, 3, 4, 5, 6, 7, 8, 9, 10, 11, 12
13, 14, 15, 16, 17, 18, 19, 20, 21, 22, 23, 24
25, 26, 27, 28, 29, 30, 31, 32, 33, 34, 35, 36
37, 38, 39, 40, 41, 42, 43, 44, 45, 46, 47, 48
49, 50, 51, 52, 53, 54, 55, 56, 57, 58, 59, 60
61, 62, 63, 64, 65, 66, 67, 68, 69, 70, 71, 72
73, 74, 75, 76, 77, 78, 79, 80, 81, 82, 83, 84
85, 86, 87, 88, 89, 90, 91, 92, 93, 94, 95, 96
97, 98, 99, 100, 101, 102, 103, 104, 105, 106, 107, 108
109, 110, 111, 112, 113, 114, 115, 116, 117, 118, 119, 120
121, 122, 123, 124, 125, 126, 127, 128, 129, 130, 131, 132
133, 134, 135, 136, 137, 138, 139, 140, 141, 142, 143, 144
145, 146, 147, 148, 149, 150, 151, 152, 153, 154, 155, 156
157, 158, 159, 160, 161, 162, 163, 164, 165, 166, 167, 168
169, 170, 171, 172, 173, 174, 175, 176, 177, 178, 179, 180
181, 182, 183, 184, 185, 186, 187, 188, 189, 190, 191, 192
193, 194, 195, 196, 197, 198, 199, 200, 201, 202, 203, 204
205, 206, 207, 208, 209, 210, 211, 212, 213, 214, 215, 216
217, 218, 219, 220, 221, 222, 223, 224, 225, 226, 227, 228
229, 230, 231, 232, 233, 234, 235, 236, 237, 238, 239, 240
** ... 74 like lines cut
*ELSET, ELSET=BULK
EPIDERMIS, DERMIS, HYPODERMIS
*ELSET, ELSET=COH, GENERATE
2108, 2156, 1
*SURFACE, TYPE=ELEMENT, NAME=SKIN_SURF
BULK,
*NSET, NSET=NBOT
1, 2, 3, 4, 5, 6, 7, 8, 9, 10, 11, 12
13, 14, 15, 16, 17, 18, 19, 20, 21, 5000000, 5000001, 5000002
5000003, 5000004, 5000005, 5000006, 5000007, 5000008, 5000009, 5000010, 5000011, 5000012, 5000013, 5000014
5000015, 5000016, 5000017, 5000018, 5000019, 5000020, 5000021, 5000022, 5000023
*NSET, NSET=NAXIS, GENERATE
1, 490001, 10000
*NSET, NSET=NRIGHT, GENERATE
5000023, 5490023, 10000
*NODE
9999, 0.0, 1530.0000
*NSET, NSET=NREF
9999,
*SURFACE, TYPE=SEGMENTS, NAME=NEEDLE, FILLET RADIUS=5.0
START, 100.0000, 3530.0000
LINE,  100.0000, 1930.0000
LINE,  0.0, 1530.0000
*RIGID BODY, ANALYTICAL SURFACE=NEEDLE, REF NODE=NREF
*MATERIAL, NAME=MAT_EPIDERMIS
*DENSITY
1.2e-15,
*USER MATERIAL, CONSTANTS=4
0.2, 0.05, 1.3, 1.7
*DEPVAR, DELETE=1
4
1, DELFLAG, deletion flag
2, LAMMAX, max principal stretch
3, DAMAGE, damage variable
4, JVOL, relative volume
*MATERIAL, NAME=MAT_DERMIS
*DENSITY
1.1e-15,
*USER MATERIAL, CONSTANTS=4
0.05, 0.5, 1.5, 2.2
*DEPVAR, DELETE=1
4
1, DELFLAG, deletion flag
2, LAMMAX, max principal stretch
3, DAMAGE, damage variable
4, JVOL, relative volume
*MATERIAL, NAME=MAT_HYPODERMIS
*DENSITY
1.1e-15,
*USER MATERIAL, CONSTANTS=4
0.01, 2.0, 1.6, 2.8
*DEPVAR, DELETE=1
4
1, DELFLAG, deletion flag
2, LAMMAX, max principal stretch
3, DAMAGE, damage variable
4, JVOL, relative volume
*SECTION CONTROLS, NAME=SKINCTRL, HOURGLASS=ENHANCED
*SOLID SECTION, ELSET=EPIDERMIS, MATERIAL=MAT_EPIDERMIS, CONTROLS=SKINCTRL
*SOLID SECTION, ELSET=DERMIS, MATERIAL=MAT_DERMIS, CONTROLS=SKINCTRL
*SOLID SECTION, ELSET=HYPODERMIS, MATERIAL=MAT_HYPODERMIS, CONTROLS=SKINCTRL
*MATERIAL, NAME=COHMAT
*DENSITY
1.1e-15,
*ELASTIC, TYPE=TRACTION
4, 4, 4
*DAMAGE INITIATION, CRITERION=MAXS
2, 2, 2
*DAMAGE EVOLUTION, TYPE=ENERGY
5,
*COHESIVE SECTION, ELSET=COH, MATERIAL=COHMAT, RESPONSE=TRACTION SEPARATION, THICKNESS=SPECIFIED
1,
*SURFACE INTERACTION, NAME=IPROP
*FRICTION
0.1,
*SURFACE BEHAVIOR, PRESSURE-OVERCLOSURE=HARD
*BOUNDARY
NBOT, 2, 2
NAXIS, 1, 1
NRIGHT, 1, 1
NREF, 1, 1
NREF, 6, 6
*AMPLITUDE, NAME=PUSH, DEFINITION=SMOOTH STEP
0.0, 0.0, 0.03, 1.0
*STEP, NAME=PUNCTURE
*DYNAMIC, EXPLICIT
, 0.03
*FIXED MASS SCALING, DT=2.0e-7, TYPE=BELOW MIN
*BOUNDARY, AMPLITUDE=PUSH
NREF, 2, 2, -800.0
*CONTACT
*CONTACT INCLUSIONS, ALL EXTERIOR
*CONTACT INCLUSIONS
NEEDLE, SKIN_SURF
*CONTACT PROPERTY ASSIGNMENT
 ,  , IPROP
*OUTPUT, FIELD, NUMBER INTERVAL=30
*ELEMENT OUTPUT, ELSET=BULK
S, LE, SDV, STATUS
*ELEMENT OUTPUT, ELSET=COH
SDEG, STATUS
*NODE OUTPUT
U, V
*OUTPUT, HISTORY, TIME INTERVAL=1.0e-4
*NODE OUTPUT, NSET=NREF
U2, V2, RF2
*ENERGY OUTPUT
ALLIE, ALLKE, ALLSE, ALLDMD, ALLWK
*END STEP
