*HEADING
[17] Paper-aligned (Yolai 2025): Ogden 2-layer skin, pure deletion
Units: mm, N, MPa, tonne, s ; von Mises + strain failure, no cohesive
*NODE
1, 0.000000, 0.000000
2, 0.008000, 0.000000
3, 0.016000, 0.000000
4, 0.024000, 0.000000
5, 0.032000, 0.000000
6, 0.040000, 0.000000
7, 0.048000, 0.000000
8, 0.056000, 0.000000
9, 0.064000, 0.000000
10, 0.072000, 0.000000
11, 0.080000, 0.000000
12, 0.088000, 0.000000
13, 0.096000, 0.000000
14, 0.104000, 0.000000
15, 0.112000, 0.000000
16, 0.120000, 0.000000
17, 0.128000, 0.000000
18, 0.136000, 0.000000
19, 0.144000, 0.000000
20, 0.152000, 0.000000
** ... 4192 like lines cut
*ELEMENT, TYPE=CAX4R
1, 1, 2, 100002, 100001
2, 2, 3, 100003, 100002
3, 3, 4, 100004, 100003
4, 4, 5, 100005, 100004
5, 5, 6, 100006, 100005
6, 6, 7, 100007, 100006
7, 7, 8, 100008, 100007
8, 8, 9, 100009, 100008
9, 9, 10, 100010, 100009
10, 10, 11, 100011, 100010
11, 11, 12, 100012, 100011
12, 12, 13, 100013, 100012
13, 13, 14, 100014, 100013
14, 14, 15, 100015, 100014
15, 15, 16, 100016, 100015
16, 16, 17, 100017, 100016
17, 17, 18, 100018, 100017
18, 18, 19, 100019, 100018
19, 19, 20, 100020, 100019
20, 20, 21, 100021, 100020
** ... 4060 like lines cut
*ELSET, ELSET=EPIDERMIS
3622, 3623, 3624, 3625, 3626, 3627, 3628, 3629, 3630, 3631, 3632, 3633
3634, 3635, 3636, 3637, 3638, 3639, 3640, 3641, 3642, 3643, 3644, 3645
3646, 3647, 3648, 3649, 3650, 3651, 3652, 3653, 3654, 3655, 3656, 3657
3658, 3659, 3660, 3661, 3662, 3663, 3664, 3665, 3666, 3667, 3668, 3669
3670, 3671, 3672, 3673, 3674, 3675, 3676, 3677, 3678, 3679, 3680, 3681
3682, 3683, 3684, 3685, 3686, 3687, 3688, 3689, 3690, 3691, 3692, 3693
3694, 3695, 3696, 3697, 3698, 3699, 3700, 3701, 3702, 3703, 3704, 3705
3706, 3707, 3708, 3709, 3710, 3711, 3712, 3713, 3714, 3715, 3716, 3717
3718, 3719, 3720, 3721, 3722, 3723, 3724, 3725, 3726, 3727, 3728, 3729
3730, 3731, 3732, 3733, 3734, 3735, 3736, 3737, 3738, 3739, 3740, 3741
3742, 3743, 3744, 3745, 3746, 3747, 3748, 3749, 3750, 3751, 3752, 3753
3754, 3755, 3756, 3757, 3758, 3759, 3760, 3761, 3762, 3763, 3764, 3765
3766, 3767, 3768, 3769, 3770, 3771, 3772, 3773, 3774, 3775, 3776, 3777
3778, 3779, 3780, 3781, 3782, 3783, 3784, 3785, 3786, 3787, 3788, 3789
3790, 3791, 3792, 3793, 3794, 3795, 3796, 3797, 3798, 3799, 3800, 3801
3802, 3803, 3804, 3805, 3806, 3807, 3808, 3809, 3810, 3811, 3812, 3813
3814, 3815, 3816, 3817, 3818, 3819, 3820, 3821, 3822, 3823, 3824, 3825
3826, 3827, 3828, 3829, 3830, 3831, 3832, 3833, 3834, 3835, 3836, 3837
3838, 3839, 3840, 3841, 3842, 3843, 3844, 3845, 3846, 3847, 3848, 3849
3850, 3851, 3852, 3853, 3854, 3855, 3856, 3857, 3858, 3859, 3860, 3861
** ... 19 like lines cut
*ELSET, ELSET=DERMIS
1, 2, 3, 4, 5, 6, 7, 8, 9, 10, 11, 12
13, 14, 15, 16, 17, 18, 19, 20, 21, 22, 23, 24
25, 26, 27, 28, 29, 30, 31, 32, 33, 34, 35, 36
37, 38, 39, 40, 41, 42, 43, 44, 45, 46, 47, 48
49, 50, 51, 52, 53, 54, 55, 56, 57, 58, 59, 60
61, 62, 63, 64, 65, 66, 67, 68, 69, 70, 71, 72
73, 74, 75, 76, 77, 78, 79, 80, 81, 82, 83, 84
85, 86, 87, 88, 89, 90, 91, 92, 93, 94, 95, 96
97, 98, 99, 100, 101, 102, 103, 104, 105, 106, 107, 108
109, 110, 111, 112, 113, 114, 115, 116, 117, 118, 119, 120
121, 122, 123, 124, 125, 126, 127, 128, 129, 130, 131, 132
133, 134, 135, 136, 137, 138, 139, 140, 141, 142, 143, 144
145, 146, 147, 148, 149, 150, 151, 152, 153, 154, 155, 156
157, 158, 159, 160, 161, 162, 163, 164, 165, 166, 167, 168
169, 170, 171, 172, 173, 174, 175, 176, 177, 178, 179, 180
181, 182, 183, 184, 185, 186, 187, 188, 189, 190, 191, 192
193, 194, 195, 196, 197, 198, 199, 200, 201, 202, 203, 204
205, 206, 207, 208, 209, 210, 211, 212, 213, 214, 215, 216
217, 218, 219, 220, 221, 222, 223, 224, 225, 226, 227, 228
229, 230, 231, 232, 233, 234, 235, 236, 237, 238, 239, 240
** ... 282 like lines cut
*ELSET, ELSET=SKIN_ALL
EPIDERMIS, DERMIS
*SURFACE, TYPE=ELEMENT, NAME=SKIN_SURF
SKIN_ALL,
*NSET, NSET=NBOT
1, 2, 3, 4, 5, 6, 7, 8, 9, 10, 11, 12
13, 14, 15, 16, 17, 18, 19, 20, 21, 22, 23, 24
25, 26, 27, 28, 29, 30, 31, 32, 33, 34, 35, 36
37, 38, 39, 40, 41, 42, 43, 44, 45, 46, 47, 48
49, 50, 51, 52
*NSET, NSET=NAXIS
1, 100001, 200001, 300001, 400001, 500001, 600001, 700001, 800001, 900001, 1000001, 1100001
1200001, 1300001, 1400001, 1500001, 1600001, 1700001, 1800001, 1900001, 2000001, 2100001, 2200001, 2300001
2400001, 2500001, 2600001, 2700001, 2800001, 2900001, 3000001, 3100001, 3200001, 3300001, 3400001, 3500001
3600001, 3700001, 3800001, 3900001, 4000001, 4100001, 4200001, 4300001, 4400001, 4500001, 4600001, 4700001
4800001, 4900001, 5000001, 5100001, 5200001, 5300001, 5400001, 5500001, 5600001, 5700001, 5800001, 5900001
6000001, 6100001, 6200001, 6300001, 6400001, 6500001, 6600001, 6700001, 6800001, 6900001, 7000001, 7100001
7200001, 7300001, 7400001, 7500001, 7600001, 7700001, 7800001, 7900001, 8000001
*NSET, NSET=NRIGHT
52, 100052, 200052, 300052, 400052, 500052, 600052, 700052, 800052, 900052, 1000052, 1100052
1200052, 1300052, 1400052, 1500052, 1600052, 1700052, 1800052, 1900052, 2000052, 2100052, 2200052, 2300052
2400052, 2500052, 2600052, 2700052, 2800052, 2900052, 3000052, 3100052, 3200052, 3300052, 3400052, 3500052
3600052, 3700052, 3800052, 3900052, 4000052, 4100052, 4200052, 4300052, 4400052, 4500052, 4600052, 4700052
4800052, 4900052, 5000052, 5100052, 5200052, 5300052, 5400052, 5500052, 5600052, 5700052, 5800052, 5900052
6000052, 6100052, 6200052, 6300052, 6400052, 6500052, 6600052, 6700052, 6800052, 6900052, 7000052, 7100052
7200052, 7300052, 7400052, 7500052, 7600052, 7700052, 7800052, 7900052, 8000052
*NODE
10000000, 0.000000, 2.550000
10000001, 0.004000, 2.550000
10000002, 0.008000, 2.550000
10000003, 0.012000, 2.550000
10000004, 0.016000, 2.550000
10000005, 0.020000, 2.550000
10001000, 0.000000, 2.558000
10001001, 0.004173, 2.558000
10001002, 0.008347, 2.558000
10001003, 0.012520, 2.558000
10001004, 0.016693, 2.558000
10001005, 0.020867, 2.558000
10002000, 0.000000, 2.567600
10002001, 0.004381, 2.567600
10002002, 0.008763, 2.567600
10002003, 0.013144, 2.567600
10002004, 0.017525, 2.567600
10002005, 0.021907, 2.567600
10003000, 0.000000, 2.579120
10003001, 0.004631, 2.579120
** ... 137 like lines cut
*NSET, NSET=NREF
9999,
*ELEMENT, TYPE=CAX4R
4081, 10000000, 10000001, 10001001, 10001000
4082, 10000001, 10000002, 10001002, 10001001
4083, 10000002, 10000003, 10001003, 10001002
4084, 10000003, 10000004, 10001004, 10001003
4085, 10000004, 10000005, 10001005, 10001004
4086, 10001000, 10001001, 10002001, 10002000
4087, 10001001, 10001002, 10002002, 10002001
4088, 10001002, 10001003, 10002003, 10002002
4089, 10001003, 10001004, 10002004, 10002003
4090, 10001004, 10001005, 10002005, 10002004
4091, 10002000, 10002001, 10003001, 10003000
4092, 10002001, 10002002, 10003002, 10003001
4093, 10002002, 10002003, 10003003, 10003002
4094, 10002003, 10002004, 10003004, 10003003
4095, 10002004, 10002005, 10003005, 10003004
4096, 10003000, 10003001, 10004001, 10004000
4097, 10003001, 10003002, 10004002, 10004001
4098, 10003002, 10003003, 10004003, 10004002
4099, 10003003, 10003004, 10004004, 10004003
4100, 10003004, 10003005, 10004005, 10004004
** ... 105 like lines cut
*ELSET, ELSET=NEEDLE_EL, GENERATE
4081, 4205, 1
*SURFACE, TYPE=ELEMENT, NAME=NEEDLE
NEEDLE_EL,
*RIGID BODY, ELSET=NEEDLE_EL, REF NODE=NREF
*MATERIAL, NAME=NEEDLE_MAT
*DENSITY
7.9e-9,
*ELASTIC
200000.0, 0.3
*SOLID SECTION, ELSET=NEEDLE_EL, MATERIAL=NEEDLE_MAT
*MATERIAL, NAME=MAT_EPIDERMIS
*DENSITY
1.3e-9,
*USER MATERIAL, CONSTANTS=5
0.752, 8.68, 0.103, 5.8, 0.084
*DEPVAR, DELETE=1
4
1, DELFLAG, deletion flag
2, SVM, von Mises stress
3, EEQ, equivalent log strain
4, JVOL, relative volume
*MATERIAL, NAME=MAT_DERMIS
*DENSITY
1.2e-9,
*USER MATERIAL, CONSTANTS=5
7.33, 57.89, 0.103, 15.0, 0.45
*DEPVAR, DELETE=1
4
1, DELFLAG, deletion flag
2, SVM, von Mises stress
3, EEQ, equivalent log strain
4, JVOL, relative volume
*SECTION CONTROLS, NAME=SKINCTRL, HOURGLASS=ENHANCED
*SOLID SECTION, ELSET=EPIDERMIS, MATERIAL=MAT_EPIDERMIS, CONTROLS=SKINCTRL
*SOLID SECTION, ELSET=DERMIS, MATERIAL=MAT_DERMIS, CONTROLS=SKINCTRL
*SURFACE INTERACTION, NAME=IPROP
*FRICTION
0.42,
*SURFACE BEHAVIOR, PRESSURE-OVERCLOSURE=HARD
*BOUNDARY
NBOT, 1, 2
NRIGHT, 1, 2
NAXIS, 1, 1
NREF, 1, 1
NREF, 6, 6
*AMPLITUDE, NAME=PUSH, DEFINITION=SMOOTH STEP
0.0, 0.0, 0.04, 1.0
*STEP, NAME=INSERTION
*DYNAMIC, EXPLICIT
, 0.04
*FIXED MASS SCALING, DT=2.0e-7, TYPE=BELOW MIN
*BOUNDARY, AMPLITUDE=PUSH
NREF, 2, 2, -1.0000
*CONTACT
*CONTACT INCLUSIONS, ALL EXTERIOR
*CONTACT INCLUSIONS
NEEDLE, SKIN_SURF
*CONTACT PROPERTY ASSIGNMENT
 ,  , IPROP
*OUTPUT, FIELD, NUMBER INTERVAL=30
*ELEMENT OUTPUT, ELSET=SKIN_ALL
S, LE, SDV, STATUS
*NODE OUTPUT
U, V
*OUTPUT, HISTORY, TIME INTERVAL=1.0e-4
*NODE OUTPUT, NSET=NREF
U2, V2, RF2
*ENERGY OUTPUT
ALLIE, ALLKE, ALLSE, ALLWK
*END STEP
