*HEADING
[17] Paper-aligned (Yolai 2025): Ogden 2-layer skin, pure deletion
Units: mm, N, MPa, tonne, s ; von Mises + strain failure, no cohesive
*NODE
1, 0.000000, 0.000000
2, 0.008000, 0.000000
3, 0.016000, 0.000000
4, 0.024000, 0.000000
5, 0.032000, 0.000000
6, 0.040000, 0.000000
7, 0.048000, 0.000000
8, 0.056000, 0.000000
9, 0.064000, 0.000000
10, 0.072000, 0.000000
11, 0.080000, 0.000000
12, 0.088000, 0.000000
13, 0.096000, 0.000000
14, 0.104000, 0.000000
15, 0.112000, 0.000000
16, 0.120000, 0.000000
17, 0.128000, 0.000000
18, 0.136000, 0.000000
19, 0.144000, 0.000000
20, 0.152000, 0.000000
** ... 1644 like lines cut
*ELEMENT, TYPE=CAX4R
1, 1, 2, 100002, 100001
2, 2, 3, 100003, 100002
3, 3, 4, 100004, 100003
4, 4, 5, 100005, 100004
5, 5, 6, 100006, 100005
6, 6, 7, 100007, 100006
7, 7, 8, 100008, 100007
8, 8, 9, 100009, 100008
9, 9, 10, 100010, 100009
10, 10, 11, 100011, 100010
11, 11, 12, 100012, 100011
12, 12, 13, 100013, 100012
13, 13, 14, 100014, 100013
14, 14, 15, 100015, 100014
15, 15, 16, 100016, 100015
16, 16, 17, 100017, 100016
17, 17, 18, 100018, 100017
18, 18, 19, 100019, 100018
19, 19, 20, 100020, 100019
20, 20, 21, 100021, 100020
** ... 1561 like lines cut
*ELSET, ELSET=EPIDERMIS
1174, 1175, 1176, 1177, 1178, 1179, 1180, 1181, 1182, 1183, 1184, 1185
1186, 1187, 1188, 1189, 1190, 1191, 1192, 1193, 1194, 1195, 1196, 1197
1198, 1199, 1200, 1201, 1202, 1203, 1204, 1205, 1206, 1207, 1208, 1209
1210, 1211, 1212, 1213, 1214, 1215, 1216, 1217, 1218, 1219, 1220, 1221
1222, 1223, 1224, 1225, 1226, 1227, 1228, 1229, 1230, 1231, 1232, 1233
1234, 1235, 1236, 1237, 1238, 1239, 1240, 1241, 1242, 1243, 1244, 1245
1246, 1247, 1248, 1249, 1250, 1251, 1252, 1253, 1254, 1255, 1256, 1257
1258, 1259, 1260, 1261, 1262, 1263, 1264, 1265, 1266, 1267, 1268, 1269
1270, 1271, 1272, 1273, 1274, 1275, 1276, 1277, 1278, 1279, 1280, 1281
1282, 1283, 1284, 1285, 1286, 1287, 1288, 1289, 1290, 1291, 1292, 1293
1294, 1295, 1296, 1297, 1298, 1299, 1300, 1301, 1302, 1303, 1304, 1305
1306, 1307, 1308, 1309, 1310, 1311, 1312, 1313, 1314, 1315, 1316, 1317
1318, 1319, 1320, 1321, 1322, 1323, 1324, 1325, 1326, 1327, 1328, 1329
1330, 1331, 1332, 1333, 1334, 1335, 1336, 1337, 1338, 1339, 1340, 1341
1342, 1343, 1344, 1345, 1346, 1347, 1348, 1349, 1350, 1351, 1352, 1353
1354, 1355, 1356, 1357, 1358, 1359, 1360, 1361, 1362, 1363, 1364, 1365
1366, 1367, 1368, 1369, 1370, 1371, 1372, 1373, 1374, 1375, 1376, 1377
1378, 1379, 1380, 1381, 1382, 1383, 1384, 1385, 1386, 1387, 1388, 1389
1390, 1391, 1392, 1393, 1394, 1395, 1396, 1397, 1398, 1399, 1400, 1401
1402, 1403, 1404, 1405, 1406, 1407, 1408, 1409, 1410, 1411, 1412, 1413
** ... 14 like lines cut
*ELSET, ELSET=DERMIS
1, 2, 3, 4, 5, 6, 7, 8, 9, 10, 11, 12
13, 14, 15, 16, 17, 18, 19, 20, 21, 22, 23, 24
25, 26, 27, 28, 29, 30, 31, 32, 33, 34, 35, 36
37, 38, 39, 40, 41, 42, 43, 44, 45, 46, 47, 48
49, 50, 51, 52, 53, 54, 55, 56, 57, 58, 59, 60
61, 62, 63, 64, 65, 66, 67, 68, 69, 70, 71, 72
73, 74, 75, 76, 77, 78, 79, 80, 81, 82, 83, 84
85, 86, 87, 88, 89, 90, 91, 92, 93, 94, 95, 96
97, 98, 99, 100, 101, 102, 103, 104, 105, 106, 107, 108
109, 110, 111, 112, 113, 114, 115, 116, 117, 118, 119, 120
121, 122, 123, 124, 125, 126, 127, 128, 129, 130, 131, 132
133, 134, 135, 136, 137, 138, 139, 140, 141, 142, 143, 144
145, 146, 147, 148, 149, 150, 151, 152, 153, 154, 155, 156
157, 158, 159, 160, 161, 162, 163, 164, 165, 166, 167, 168
169, 170, 171, 172, 173, 174, 175, 176, 177, 178, 179, 180
181, 182, 183, 184, 185, 186, 187, 188, 189, 190, 191, 192
193, 194, 195, 196, 197, 198, 199, 200, 201, 202, 203, 204
205, 206, 207, 208, 209, 210, 211, 212, 213, 214, 215, 216
217, 218, 219, 220, 221, 222, 223, 224, 225, 226, 227, 228
229, 230, 231, 232, 233, 234, 235, 236, 237, 238, 239, 240
** ... 78 like lines cut
*ELSET, ELSET=SKIN_ALL
EPIDERMIS, DERMIS
*SURFACE, TYPE=ELEMENT, NAME=SKIN_SURF
SKIN_ALL,
*NSET, NSET=NBOT
1, 2, 3, 4, 5, 6, 7, 8, 9, 10, 11, 12
13, 14, 15, 16, 17, 18, 19, 20, 21, 22, 23, 24
25, 26, 27, 28, 29, 30, 31, 32, 33, 34, 35, 36
37, 38, 39, 40, 41, 42, 43, 44, 45, 46, 47, 48
49, 50, 51, 52
*NSET, NSET=NAXIS
1, 100001, 200001, 300001, 400001, 500001, 600001, 700001, 800001, 900001, 1000001, 1100001
1200001, 1300001, 1400001, 1500001, 1600001, 1700001, 1800001, 1900001, 2000001, 2100001, 2200001, 2300001
2400001, 2500001, 2600001, 2700001, 2800001, 2900001, 3000001, 3100001
*NSET, NSET=NRIGHT
52, 100052, 200052, 300052, 400052, 500052, 600052, 700052, 800052, 900052, 1000052, 1100052
1200052, 1300052, 1400052, 1500052, 1600052, 1700052, 1800052, 1900052, 2000052, 2100052, 2200052, 2300052
2400052, 2500052, 2600052, 2700052, 2800052, 2900052, 3000052, 3100052
*NODE
9999, 0.0, 2.550000
*NSET, NSET=NREF
9999,
*SURFACE, TYPE=SEGMENTS, NAME=NEEDLE, FILLET RADIUS=0.01
START, 0.15000, 4.75000
LINE,  0.15000, 3.75000
LINE,  0.02000, 2.57000
CIRCL, 0.0, 2.55000, 0.0, 2.57000
*RIGID BODY, ANALYTICAL SURFACE=NEEDLE, REF NODE=NREF
*MATERIAL, NAME=MAT_EPIDERMIS
*DENSITY
1.3e-9,
*USER MATERIAL, CONSTANTS=5
0.752, 8.68, 1.03e-7, 5.8, 0.084
*DEPVAR, DELETE=1
4
1, DELFLAG, deletion flag
2, SVM, von Mises stress
3, EEQ, equivalent log strain
4, JVOL, relative volume
*MATERIAL, NAME=MAT_DERMIS
*DENSITY
1.2e-9,
*USER MATERIAL, CONSTANTS=5
7.33, 57.89, 1.03e-7, 15.0, 0.45
*DEPVAR, DELETE=1
4
1, DELFLAG, deletion flag
2, SVM, von Mises stress
3, EEQ, equivalent log strain
4, JVOL, relative volume
*SECTION CONTROLS, NAME=SKINCTRL, HOURGLASS=ENHANCED
*SOLID SECTION, ELSET=EPIDERMIS, MATERIAL=MAT_EPIDERMIS, CONTROLS=SKINCTRL
*SOLID SECTION, ELSET=DERMIS, MATERIAL=MAT_DERMIS, CONTROLS=SKINCTRL
*SURFACE INTERACTION, NAME=IPROP
*FRICTION
0.42,
*SURFACE BEHAVIOR, PRESSURE-OVERCLOSURE=HARD
*BOUNDARY
NBOT, 1, 2
NRIGHT, 1, 2
NAXIS, 1, 1
NREF, 1, 1
NREF, 6, 6
*AMPLITUDE, NAME=PUSH, DEFINITION=SMOOTH STEP
0.0, 0.0, 0.02, 1.0
*STEP, NAME=INSERTION
*DYNAMIC, EXPLICIT
, 0.02
*FIXED MASS SCALING, DT=5.0e-7, TYPE=BELOW MIN
*BOUNDARY, AMPLITUDE=PUSH
NREF, 2, 2, -1.0000
*CONTACT
*CONTACT INCLUSIONS, ALL EXTERIOR
*CONTACT PROPERTY ASSIGNMENT
 ,  , IPROP
*OUTPUT, FIELD, NUMBER INTERVAL=30
*ELEMENT OUTPUT, ELSET=SKIN_ALL
S, LE, SDV, STATUS
*NODE OUTPUT
U, V
*OUTPUT, HISTORY, TIME INTERVAL=1.0e-4
*NODE OUTPUT, NSET=NREF
U2, V2, RF2
*ENERGY OUTPUT
ALLIE, ALLKE, ALLSE, ALLWK
*END STEP
